<nodes>
    <node id="n1" x="0.0" y="0.0" type="traffic_light"/>
    <node id="n2" x="500.0" y="0.0" type="priority"/>
    <node id="n3" x="500.0" y="500.0" type="traffic_light"/>
    <node id="n4" x="0.0" y="500.0" type="priority"/>
    <node id="n5" x="250.0" y="250.0" type="priority"/>
</nodes>
