<edges>
    <edge id="e1" from="n1" to="n2" priority="1" numLanes="2" speed="13.9"/>
    <edge id="e2" from="n2" to="n3" priority="1" numLanes="2" speed="13.9"/>
    <edge id="e3" from="n3" to="n4" priority="1" numLanes="2" speed="13.9"/>
    <edge id="e4" from="n4" to="n1" priority="1" numLanes="2" speed="13.9"/>
    <edge id="e5" from="n1" to="n5" priority="2" numLanes="1" speed="10.0"/>
    <edge id="e6" from="n2" to="n5" priority="2" numLanes="1" speed="10.0"/>
    <edge id="e7" from="n3" to="n5" priority="2" numLanes="1" speed="10.0"/>
    <edge id="e8" from="n4" to="n5" priority="2" numLanes="1" speed="10.0"/>
</edges>
