
<nodes>
  <node id="n1" x="0.0" y="0.0" type="priority"/>
  <node id="n2" x="100.0" y="0.0" type="priority"/>
  <node id="n3" x="100.0" y="50.0" type="priority"/>
</nodes>
