<nodes>
    <node id="n1" x="0.0" y="0.0" type="traffic_light"/>
    <node id="n2" x="100.0" y="0.0"/>
    <node id="n3" x="200.0" y="0.0"/>
    <node id="n4" x="0.0" y="100.0"/>
    <node id="n5" x="100.0" y="100.0" type="traffic_light"/>
    <node id="n6" x="200.0" y="100.0"/>
    <node id="n7" x="0.0" y="200.0"/>
    <node id="n8" x="100.0" y="200.0"/>
    <node id="n9" x="200.0" y="200.0"/>
</nodes>
