<?xml version="1.0" encoding="UTF-8"?>

<!-- generated on 2025-04-22 12:16:58.146493 by randomTrips.py UNKNOWN
<configuration>
    <net-file value="vuna.net.xml"/>
    <output-trip-file value="vuna.rou.xml"/>
    <route-file value="vuna.trips.xml"/>
    <prefix value="veh"/>
    <period value="5.0"/>
    <binomial value="2"/>
</configuration>
-->

<!-- generated on 2025-04-22 12:16:58 by Eclipse SUMO duarouter Version 1.22.0
<duarouterConfiguration xmlns:xsi="http://www.w3.org/2001/XMLSchema-instance" xsi:noNamespaceSchemaLocation="http://sumo.dlr.de/xsd/duarouterConfiguration.xsd">

    <input>
        <net-file value="vuna.net.xml"/>
        <route-files value="vuna.rou.xml"/>
    </input>

    <output>
        <output-file value="vuna.trips.xml"/>
        <alternatives-output value="NUL"/>
    </output>

    <time>
        <begin value="0"/>
        <end value="3600.0"/>
    </time>

    <report>
        <no-warnings value="true"/>
        <ignore-errors value="true"/>
        <no-step-log value="true"/>
    </report>

</duarouterConfiguration>
-->

<routes xmlns:xsi="http://www.w3.org/2001/XMLSchema-instance" xsi:noNamespaceSchemaLocation="http://sumo.dlr.de/xsd/routes_file.xsd">
    <vehicle id="veh0" depart="0.00">
        <route edges="e11 e12"/>
    </vehicle>
    <vehicle id="veh1" depart="2.00">
        <route edges="e3 e10"/>
    </vehicle>
    <vehicle id="veh3" depart="6.00">
        <route edges="e8 e5"/>
    </vehicle>
    <vehicle id="veh5" depart="15.00">
        <route edges="e11 e12"/>
    </vehicle>
    <vehicle id="veh6" depart="16.00">
        <route edges="e11"/>
    </vehicle>
    <vehicle id="veh7" depart="26.00">
        <route edges="e2 e11 e12"/>
    </vehicle>
    <vehicle id="veh8" depart="36.00">
        <route edges="e1 e2 e11"/>
    </vehicle>
    <vehicle id="veh10" depart="40.00">
        <route edges="e7 e8 e5"/>
    </vehicle>
    <vehicle id="veh13" depart="54.00">
        <route edges="e3 e10"/>
    </vehicle>
    <vehicle id="veh16" depart="72.00">
        <route edges="e3"/>
    </vehicle>
    <vehicle id="veh20" depart="92.00">
        <route edges="e4"/>
    </vehicle>
    <vehicle id="veh23" depart="105.00">
        <route edges="e11 e12"/>
    </vehicle>
    <vehicle id="veh25" depart="118.00">
        <route edges="e3 e4 e12"/>
    </vehicle>
    <vehicle id="veh26" depart="119.00">
        <route edges="e7 e8 e5"/>
    </vehicle>
    <vehicle id="veh30" depart="154.00">
        <route edges="e9 e4"/>
    </vehicle>
    <vehicle id="veh36" depart="177.00">
        <route edges="e7 e3 e10 e6"/>
    </vehicle>
    <vehicle id="veh38" depart="192.00">
        <route edges="e11 e12"/>
    </vehicle>
    <vehicle id="veh39" depart="195.00">
        <route edges="e3 e4"/>
    </vehicle>
    <vehicle id="veh44" depart="210.00">
        <route edges="e2 e11 e12"/>
    </vehicle>
    <vehicle id="veh45" depart="213.00">
        <route edges="e1 e9 e4"/>
    </vehicle>
    <vehicle id="veh48" depart="226.00">
        <route edges="e5"/>
    </vehicle>
    <vehicle id="veh51" depart="248.00">
        <route edges="e9 e10"/>
    </vehicle>
    <vehicle id="veh53" depart="265.00">
        <route edges="e4 e12"/>
    </vehicle>
    <vehicle id="veh60" depart="304.00">
        <route edges="e7 e3"/>
    </vehicle>
    <vehicle id="veh61" depart="307.00">
        <route edges="e2"/>
    </vehicle>
    <vehicle id="veh62" depart="325.00">
        <route edges="e9"/>
    </vehicle>
    <vehicle id="veh63" depart="345.00">
        <route edges="e7 e3 e10 e6"/>
    </vehicle>
    <vehicle id="veh64" depart="349.00">
        <route edges="e4"/>
    </vehicle>
    <vehicle id="veh67" depart="365.00">
        <route edges="e7 e3 e4 e12"/>
    </vehicle>
    <vehicle id="veh68" depart="368.00">
        <route edges="e8 e5"/>
    </vehicle>
    <vehicle id="veh76" depart="419.00">
        <route edges="e3"/>
    </vehicle>
    <vehicle id="veh79" depart="427.00">
        <route edges="e7 e3 e4 e12"/>
    </vehicle>
    <vehicle id="veh80" depart="429.00">
        <route edges="e7 e3 e4 e12"/>
    </vehicle>
    <vehicle id="veh82" depart="434.00">
        <route edges="e1 e9 e10 e6"/>
    </vehicle>
    <vehicle id="veh83" depart="436.00">
        <route edges="e7 e3 e4"/>
    </vehicle>
    <vehicle id="veh84" depart="440.00">
        <route edges="e7 e8"/>
    </vehicle>
    <vehicle id="veh85" depart="442.00">
        <route edges="e3"/>
    </vehicle>
    <vehicle id="veh88" depart="448.00">
        <route edges="e7 e8"/>
    </vehicle>
    <vehicle id="veh91" depart="456.00">
        <route edges="e7 e8"/>
    </vehicle>
    <vehicle id="veh94" depart="475.00">
        <route edges="e7 e3 e4 e12"/>
    </vehicle>
    <vehicle id="veh95" depart="479.00">
        <route edges="e1 e2 e11"/>
    </vehicle>
    <vehicle id="veh97" depart="487.00">
        <route edges="e2 e11 e12"/>
    </vehicle>
    <vehicle id="veh110" depart="576.00">
        <route edges="e1 e9 e4"/>
    </vehicle>
    <vehicle id="veh112" depart="583.00">
        <route edges="e1 e9 e4 e12"/>
    </vehicle>
    <vehicle id="veh113" depart="587.00">
        <route edges="e3 e10 e6"/>
    </vehicle>
    <vehicle id="veh114" depart="590.00">
        <route edges="e4 e12"/>
    </vehicle>
    <vehicle id="veh115" depart="593.00">
        <route edges="e9 e10"/>
    </vehicle>
    <vehicle id="veh118" depart="605.00">
        <route edges="e7 e3"/>
    </vehicle>
    <vehicle id="veh119" depart="606.00">
        <route edges="e10"/>
    </vehicle>
    <vehicle id="veh124" depart="628.00">
        <route edges="e1 e9 e10 e6"/>
    </vehicle>
    <vehicle id="veh134" depart="694.00">
        <route edges="e9 e4"/>
    </vehicle>
    <vehicle id="veh140" depart="729.00">
        <route edges="e2 e11"/>
    </vehicle>
    <vehicle id="veh142" depart="759.00">
        <route edges="e3 e10 e6"/>
    </vehicle>
    <vehicle id="veh144" depart="765.00">
        <route edges="e4"/>
    </vehicle>
    <vehicle id="veh147" depart="790.00">
        <route edges="e5"/>
    </vehicle>
    <vehicle id="veh149" depart="802.00">
        <route edges="e3 e10 e6"/>
    </vehicle>
    <vehicle id="veh154" depart="814.00">
        <route edges="e9 e10"/>
    </vehicle>
    <vehicle id="veh155" depart="825.00">
        <route edges="e1 e9 e4 e12"/>
    </vehicle>
    <vehicle id="veh156" depart="833.00">
        <route edges="e11"/>
    </vehicle>
    <vehicle id="veh158" depart="834.00">
        <route edges="e7 e3"/>
    </vehicle>
    <vehicle id="veh159" depart="836.00">
        <route edges="e4 e12"/>
    </vehicle>
    <vehicle id="veh162" depart="863.00">
        <route edges="e9"/>
    </vehicle>
    <vehicle id="veh167" depart="896.00">
        <route edges="e8 e5"/>
    </vehicle>
    <vehicle id="veh170" depart="906.00">
        <route edges="e1 e2 e11"/>
    </vehicle>
    <vehicle id="veh172" depart="911.00">
        <route edges="e1 e9"/>
    </vehicle>
    <vehicle id="veh177" depart="928.00">
        <route edges="e5 e6"/>
    </vehicle>
    <vehicle id="veh178" depart="929.00">
        <route edges="e10 e6"/>
    </vehicle>
    <vehicle id="veh179" depart="931.00">
        <route edges="e2"/>
    </vehicle>
    <vehicle id="veh181" depart="938.00">
        <route edges="e9"/>
    </vehicle>
    <vehicle id="veh182" depart="942.00">
        <route edges="e3"/>
    </vehicle>
    <vehicle id="veh183" depart="943.00">
        <route edges="e11 e12"/>
    </vehicle>
    <vehicle id="veh185" depart="974.00">
        <route edges="e7 e8 e5"/>
    </vehicle>
    <vehicle id="veh193" depart="1025.00">
        <route edges="e1 e9 e10 e6"/>
    </vehicle>
    <vehicle id="veh194" depart="1032.00">
        <route edges="e7 e3 e4"/>
    </vehicle>
    <vehicle id="veh195" depart="1044.00">
        <route edges="e2 e11 e12"/>
    </vehicle>
    <vehicle id="veh196" depart="1048.00">
        <route edges="e9 e10 e6"/>
    </vehicle>
    <vehicle id="veh197" depart="1057.00">
        <route edges="e4 e12"/>
    </vehicle>
    <vehicle id="veh198" depart="1060.00">
        <route edges="e7 e3 e10 e6"/>
    </vehicle>
    <vehicle id="veh199" depart="1062.00">
        <route edges="e4 e12"/>
    </vehicle>
    <vehicle id="veh200" depart="1068.00">
        <route edges="e1 e9 e10 e6"/>
    </vehicle>
    <vehicle id="veh201" depart="1070.00">
        <route edges="e9 e4 e12"/>
    </vehicle>
    <vehicle id="veh206" depart="1092.00">
        <route edges="e10 e6"/>
    </vehicle>
    <vehicle id="veh209" depart="1109.00">
        <route edges="e1 e9 e4 e12"/>
    </vehicle>
    <vehicle id="veh210" depart="1110.00">
        <route edges="e1 e9 e10 e6"/>
    </vehicle>
    <vehicle id="veh212" depart="1118.00">
        <route edges="e5 e6"/>
    </vehicle>
    <vehicle id="veh215" depart="1130.00">
        <route edges="e7 e3 e4"/>
    </vehicle>
    <vehicle id="veh219" depart="1145.00">
        <route edges="e3 e4 e12"/>
    </vehicle>
    <vehicle id="veh221" depart="1153.00">
        <route edges="e3 e4 e12"/>
    </vehicle>
    <vehicle id="veh223" depart="1158.00">
        <route edges="e9 e10 e6"/>
    </vehicle>
    <vehicle id="veh225" depart="1161.00">
        <route edges="e1 e2 e11"/>
    </vehicle>
    <vehicle id="veh230" depart="1178.00">
        <route edges="e3"/>
    </vehicle>
    <vehicle id="veh232" depart="1186.00">
        <route edges="e1 e9"/>
    </vehicle>
    <vehicle id="veh236" depart="1195.00">
        <route edges="e11"/>
    </vehicle>
    <vehicle id="veh237" depart="1205.00">
        <route edges="e9 e4"/>
    </vehicle>
    <vehicle id="veh238" depart="1210.00">
        <route edges="e9 e4 e12"/>
    </vehicle>
    <vehicle id="veh240" depart="1220.00">
        <route edges="e11 e12"/>
    </vehicle>
    <vehicle id="veh241" depart="1221.00">
        <route edges="e9 e4 e12"/>
    </vehicle>
    <vehicle id="veh244" depart="1246.00">
        <route edges="e7 e8 e5"/>
    </vehicle>
    <vehicle id="veh245" depart="1248.00">
        <route edges="e11"/>
    </vehicle>
    <vehicle id="veh255" depart="1276.00">
        <route edges="e7 e8 e5"/>
    </vehicle>
    <vehicle id="veh257" depart="1282.00">
        <route edges="e9 e10 e6"/>
    </vehicle>
    <vehicle id="veh258" depart="1293.00">
        <route edges="e2"/>
    </vehicle>
    <vehicle id="veh259" depart="1305.00">
        <route edges="e11"/>
    </vehicle>
    <vehicle id="veh265" depart="1337.00">
        <route edges="e7 e3 e10 e6"/>
    </vehicle>
    <vehicle id="veh269" depart="1359.00">
        <route edges="e7 e3 e4"/>
    </vehicle>
    <vehicle id="veh275" depart="1385.00">
        <route edges="e5"/>
    </vehicle>
    <vehicle id="veh281" depart="1419.00">
        <route edges="e3 e4 e12"/>
    </vehicle>
    <vehicle id="veh284" depart="1426.00">
        <route edges="e10"/>
    </vehicle>
    <vehicle id="veh285" depart="1429.00">
        <route edges="e7 e3 e10"/>
    </vehicle>
    <vehicle id="veh292" depart="1456.00">
        <route edges="e3 e4 e12"/>
    </vehicle>
    <vehicle id="veh303" depart="1547.00">
        <route edges="e11 e12"/>
    </vehicle>
    <vehicle id="veh307" depart="1571.00">
        <route edges="e1 e9 e10 e6"/>
    </vehicle>
    <vehicle id="veh310" depart="1579.00">
        <route edges="e7 e3"/>
    </vehicle>
    <vehicle id="veh311" depart="1589.00">
        <route edges="e4"/>
    </vehicle>
    <vehicle id="veh312" depart="1600.00">
        <route edges="e1 e9 e10 e6"/>
    </vehicle>
    <vehicle id="veh313" depart="1609.00">
        <route edges="e11 e12"/>
    </vehicle>
    <vehicle id="veh314" depart="1618.00">
        <route edges="e1 e9 e10"/>
    </vehicle>
    <vehicle id="veh319" depart="1657.00">
        <route edges="e1 e9 e4"/>
    </vehicle>
    <vehicle id="veh321" depart="1662.00">
        <route edges="e7 e8 e5"/>
    </vehicle>
    <vehicle id="veh324" depart="1674.00">
        <route edges="e7 e3 e4"/>
    </vehicle>
    <vehicle id="veh325" depart="1680.00">
        <route edges="e4 e12"/>
    </vehicle>
    <vehicle id="veh327" depart="1689.00">
        <route edges="e5"/>
    </vehicle>
    <vehicle id="veh328" depart="1707.00">
        <route edges="e1 e2 e11"/>
    </vehicle>
    <vehicle id="veh331" depart="1716.00">
        <route edges="e4"/>
    </vehicle>
    <vehicle id="veh333" depart="1722.00">
        <route edges="e1 e9 e4 e12"/>
    </vehicle>
    <vehicle id="veh335" depart="1736.00">
        <route edges="e10"/>
    </vehicle>
    <vehicle id="veh340" depart="1758.00">
        <route edges="e7 e3"/>
    </vehicle>
    <vehicle id="veh342" depart="1772.00">
        <route edges="e11 e12"/>
    </vehicle>
    <vehicle id="veh346" depart="1803.00">
        <route edges="e7 e8 e5"/>
    </vehicle>
    <vehicle id="veh350" depart="1806.00">
        <route edges="e11"/>
    </vehicle>
    <vehicle id="veh352" depart="1823.00">
        <route edges="e8"/>
    </vehicle>
    <vehicle id="veh353" depart="1824.00">
        <route edges="e9"/>
    </vehicle>
    <vehicle id="veh354" depart="1825.00">
        <route edges="e3 e4 e12"/>
    </vehicle>
    <vehicle id="veh356" depart="1839.00">
        <route edges="e1 e9 e4"/>
    </vehicle>
    <vehicle id="veh357" depart="1848.00">
        <route edges="e7 e3 e10"/>
    </vehicle>
    <vehicle id="veh358" depart="1854.00">
        <route edges="e3 e10 e6"/>
    </vehicle>
    <vehicle id="veh359" depart="1858.00">
        <route edges="e9 e4"/>
    </vehicle>
    <vehicle id="veh360" depart="1865.00">
        <route edges="e1 e9 e10 e6"/>
    </vehicle>
    <vehicle id="veh361" depart="1867.00">
        <route edges="e10"/>
    </vehicle>
    <vehicle id="veh362" depart="1870.00">
        <route edges="e5 e6"/>
    </vehicle>
    <vehicle id="veh365" depart="1885.00">
        <route edges="e8 e5 e6"/>
    </vehicle>
    <vehicle id="veh368" depart="1898.00">
        <route edges="e9 e4 e12"/>
    </vehicle>
    <vehicle id="veh370" depart="1903.00">
        <route edges="e1 e2"/>
    </vehicle>
    <vehicle id="veh371" depart="1905.00">
        <route edges="e7 e3 e4"/>
    </vehicle>
    <vehicle id="veh372" depart="1928.00">
        <route edges="e8 e5"/>
    </vehicle>
    <vehicle id="veh373" depart="1931.00">
        <route edges="e2 e11"/>
    </vehicle>
    <vehicle id="veh375" depart="1940.00">
        <route edges="e1 e9 e10 e6"/>
    </vehicle>
    <vehicle id="veh385" depart="1965.00">
        <route edges="e9"/>
    </vehicle>
    <vehicle id="veh391" depart="1977.00">
        <route edges="e8 e5"/>
    </vehicle>
    <vehicle id="veh394" depart="1989.00">
        <route edges="e4 e12"/>
    </vehicle>
    <vehicle id="veh396" depart="2022.00">
        <route edges="e7 e3 e10"/>
    </vehicle>
    <vehicle id="veh397" depart="2025.00">
        <route edges="e9"/>
    </vehicle>
    <vehicle id="veh399" depart="2034.00">
        <route edges="e9 e4"/>
    </vehicle>
    <vehicle id="veh405" depart="2071.00">
        <route edges="e8 e5"/>
    </vehicle>
    <vehicle id="veh408" depart="2079.00">
        <route edges="e3 e4"/>
    </vehicle>
    <vehicle id="veh410" depart="2100.00">
        <route edges="e11 e12"/>
    </vehicle>
    <vehicle id="veh414" depart="2121.00">
        <route edges="e3"/>
    </vehicle>
    <vehicle id="veh415" depart="2127.00">
        <route edges="e3 e4"/>
    </vehicle>
    <vehicle id="veh417" depart="2136.00">
        <route edges="e3 e10"/>
    </vehicle>
    <vehicle id="veh422" depart="2181.00">
        <route edges="e9 e4"/>
    </vehicle>
    <vehicle id="veh424" depart="2187.00">
        <route edges="e8"/>
    </vehicle>
    <vehicle id="veh426" depart="2196.00">
        <route edges="e1 e9"/>
    </vehicle>
    <vehicle id="veh427" depart="2199.00">
        <route edges="e7 e8"/>
    </vehicle>
    <vehicle id="veh428" depart="2209.00">
        <route edges="e1 e9 e10 e6"/>
    </vehicle>
    <vehicle id="veh431" depart="2229.00">
        <route edges="e5 e6"/>
    </vehicle>
    <vehicle id="veh433" depart="2234.00">
        <route edges="e9 e10 e6"/>
    </vehicle>
    <vehicle id="veh442" depart="2270.00">
        <route edges="e1 e2 e11"/>
    </vehicle>
    <vehicle id="veh443" depart="2272.00">
        <route edges="e1 e9"/>
    </vehicle>
    <vehicle id="veh445" depart="2286.00">
        <route edges="e9 e4 e12"/>
    </vehicle>
    <vehicle id="veh446" depart="2293.00">
        <route edges="e4 e12"/>
    </vehicle>
    <vehicle id="veh449" depart="2308.00">
        <route edges="e3 e10 e6"/>
    </vehicle>
    <vehicle id="veh450" depart="2309.00">
        <route edges="e2 e11"/>
    </vehicle>
    <vehicle id="veh451" depart="2312.00">
        <route edges="e5 e6"/>
    </vehicle>
    <vehicle id="veh453" depart="2317.00">
        <route edges="e1 e9 e10 e6"/>
    </vehicle>
    <vehicle id="veh459" depart="2341.00">
        <route edges="e3 e10"/>
    </vehicle>
    <vehicle id="veh462" depart="2350.00">
        <route edges="e11"/>
    </vehicle>
    <vehicle id="veh466" depart="2367.00">
        <route edges="e7 e8"/>
    </vehicle>
    <vehicle id="veh469" depart="2388.00">
        <route edges="e9 e10"/>
    </vehicle>
    <vehicle id="veh473" depart="2397.00">
        <route edges="e3 e10 e6"/>
    </vehicle>
    <vehicle id="veh475" depart="2401.00">
        <route edges="e3 e4 e12"/>
    </vehicle>
    <vehicle id="veh476" depart="2404.00">
        <route edges="e8 e5 e6"/>
    </vehicle>
    <vehicle id="veh478" depart="2408.00">
        <route edges="e7 e3 e4 e12"/>
    </vehicle>
    <vehicle id="veh484" depart="2446.00">
        <route edges="e2 e11"/>
    </vehicle>
    <vehicle id="veh485" depart="2448.00">
        <route edges="e2"/>
    </vehicle>
    <vehicle id="veh490" depart="2474.00">
        <route edges="e7 e3"/>
    </vehicle>
    <vehicle id="veh492" depart="2481.00">
        <route edges="e9 e10 e6"/>
    </vehicle>
    <vehicle id="veh494" depart="2486.00">
        <route edges="e8"/>
    </vehicle>
    <vehicle id="veh495" depart="2488.00">
        <route edges="e1 e9 e4 e12"/>
    </vehicle>
    <vehicle id="veh496" depart="2494.00">
        <route edges="e7 e3 e4"/>
    </vehicle>
    <vehicle id="veh498" depart="2506.00">
        <route edges="e7 e3 e4"/>
    </vehicle>
    <vehicle id="veh503" depart="2527.00">
        <route edges="e5 e6"/>
    </vehicle>
    <vehicle id="veh504" depart="2527.00">
        <route edges="e7 e3 e10 e6"/>
    </vehicle>
    <vehicle id="veh505" depart="2528.00">
        <route edges="e10 e6"/>
    </vehicle>
    <vehicle id="veh507" depart="2529.00">
        <route edges="e5 e6"/>
    </vehicle>
    <vehicle id="veh511" depart="2550.00">
        <route edges="e2 e11"/>
    </vehicle>
    <vehicle id="veh515" depart="2573.00">
        <route edges="e1 e9 e10"/>
    </vehicle>
    <vehicle id="veh516" depart="2577.00">
        <route edges="e1 e9 e10 e6"/>
    </vehicle>
    <vehicle id="veh521" depart="2598.00">
        <route edges="e2"/>
    </vehicle>
    <vehicle id="veh522" depart="2601.00">
        <route edges="e2"/>
    </vehicle>
    <vehicle id="veh527" depart="2625.00">
        <route edges="e7 e8"/>
    </vehicle>
    <vehicle id="veh531" depart="2650.00">
        <route edges="e9 e10 e6"/>
    </vehicle>
    <vehicle id="veh534" depart="2683.00">
        <route edges="e8"/>
    </vehicle>
    <vehicle id="veh539" depart="2730.00">
        <route edges="e1 e2"/>
    </vehicle>
    <vehicle id="veh546" depart="2762.00">
        <route edges="e7 e8 e5"/>
    </vehicle>
    <vehicle id="veh547" depart="2763.00">
        <route edges="e5"/>
    </vehicle>
    <vehicle id="veh548" depart="2766.00">
        <route edges="e8 e5"/>
    </vehicle>
    <vehicle id="veh551" depart="2772.00">
        <route edges="e1 e9"/>
    </vehicle>
    <vehicle id="veh554" depart="2796.00">
        <route edges="e1 e9 e10"/>
    </vehicle>
    <vehicle id="veh559" depart="2817.00">
        <route edges="e10"/>
    </vehicle>
    <vehicle id="veh563" depart="2840.00">
        <route edges="e11"/>
    </vehicle>
    <vehicle id="veh570" depart="2886.00">
        <route edges="e10"/>
    </vehicle>
    <vehicle id="veh572" depart="2888.00">
        <route edges="e7 e8 e5"/>
    </vehicle>
    <vehicle id="veh573" depart="2890.00">
        <route edges="e5 e6"/>
    </vehicle>
    <vehicle id="veh576" depart="2904.00">
        <route edges="e4"/>
    </vehicle>
    <vehicle id="veh577" depart="2906.00">
        <route edges="e7 e3 e4"/>
    </vehicle>
    <vehicle id="veh580" depart="2922.00">
        <route edges="e7 e8"/>
    </vehicle>
    <vehicle id="veh583" depart="2942.00">
        <route edges="e8"/>
    </vehicle>
    <vehicle id="veh585" depart="2967.00">
        <route edges="e7 e3 e4 e12"/>
    </vehicle>
    <vehicle id="veh589" depart="2977.00">
        <route edges="e1 e2"/>
    </vehicle>
    <vehicle id="veh590" depart="2984.00">
        <route edges="e3"/>
    </vehicle>
    <vehicle id="veh594" depart="3000.00">
        <route edges="e7 e3 e4"/>
    </vehicle>
    <vehicle id="veh595" depart="3011.00">
        <route edges="e5"/>
    </vehicle>
    <vehicle id="veh601" depart="3033.00">
        <route edges="e10"/>
    </vehicle>
    <vehicle id="veh603" depart="3048.00">
        <route edges="e10"/>
    </vehicle>
    <vehicle id="veh605" depart="3050.00">
        <route edges="e11"/>
    </vehicle>
    <vehicle id="veh608" depart="3059.00">
        <route edges="e1 e9 e10"/>
    </vehicle>
    <vehicle id="veh611" depart="3064.00">
        <route edges="e7 e3 e4 e12"/>
    </vehicle>
    <vehicle id="veh618" depart="3097.00">
        <route edges="e1 e2 e11"/>
    </vehicle>
    <vehicle id="veh619" depart="3100.00">
        <route edges="e1 e2 e11"/>
    </vehicle>
    <vehicle id="veh624" depart="3116.00">
        <route edges="e7 e8"/>
    </vehicle>
    <vehicle id="veh627" depart="3126.00">
        <route edges="e11 e12"/>
    </vehicle>
    <vehicle id="veh630" depart="3140.00">
        <route edges="e1 e9 e10"/>
    </vehicle>
    <vehicle id="veh632" depart="3163.00">
        <route edges="e8"/>
    </vehicle>
    <vehicle id="veh636" depart="3177.00">
        <route edges="e9 e4 e12"/>
    </vehicle>
    <vehicle id="veh637" depart="3178.00">
        <route edges="e1 e9 e4"/>
    </vehicle>
    <vehicle id="veh639" depart="3188.00">
        <route edges="e10"/>
    </vehicle>
    <vehicle id="veh640" depart="3208.00">
        <route edges="e10 e6"/>
    </vehicle>
    <vehicle id="veh641" depart="3211.00">
        <route edges="e5 e6"/>
    </vehicle>
    <vehicle id="veh643" depart="3216.00">
        <route edges="e4 e12"/>
    </vehicle>
    <vehicle id="veh645" depart="3220.00">
        <route edges="e7 e8 e5"/>
    </vehicle>
    <vehicle id="veh647" depart="3227.00">
        <route edges="e1 e9 e10 e6"/>
    </vehicle>
    <vehicle id="veh649" depart="3242.00">
        <route edges="e8 e5"/>
    </vehicle>
    <vehicle id="veh651" depart="3261.00">
        <route edges="e2 e11 e12"/>
    </vehicle>
    <vehicle id="veh652" depart="3263.00">
        <route edges="e9 e4"/>
    </vehicle>
    <vehicle id="veh662" depart="3307.00">
        <route edges="e8 e5"/>
    </vehicle>
    <vehicle id="veh663" depart="3312.00">
        <route edges="e7 e8 e5"/>
    </vehicle>
    <vehicle id="veh664" depart="3321.00">
        <route edges="e5 e6"/>
    </vehicle>
    <vehicle id="veh666" depart="3332.00">
        <route edges="e10 e6"/>
    </vehicle>
    <vehicle id="veh667" depart="3340.00">
        <route edges="e7 e3 e10"/>
    </vehicle>
    <vehicle id="veh669" depart="3349.00">
        <route edges="e2"/>
    </vehicle>
    <vehicle id="veh672" depart="3377.00">
        <route edges="e3 e10 e6"/>
    </vehicle>
    <vehicle id="veh674" depart="3391.00">
        <route edges="e1 e9 e10 e6"/>
    </vehicle>
    <vehicle id="veh675" depart="3395.00">
        <route edges="e1 e9 e4"/>
    </vehicle>
    <vehicle id="veh677" depart="3432.00">
        <route edges="e7 e3 e4"/>
    </vehicle>
    <vehicle id="veh682" depart="3448.00">
        <route edges="e4"/>
    </vehicle>
    <vehicle id="veh683" depart="3452.00">
        <route edges="e1 e9"/>
    </vehicle>
    <vehicle id="veh684" depart="3454.00">
        <route edges="e4"/>
    </vehicle>
    <vehicle id="veh685" depart="3465.00">
        <route edges="e9 e4"/>
    </vehicle>
    <vehicle id="veh696" depart="3516.00">
        <route edges="e1 e9 e10 e6"/>
    </vehicle>
    <vehicle id="veh697" depart="3518.00">
        <route edges="e7 e3 e4"/>
    </vehicle>
    <vehicle id="veh704" depart="3585.00">
        <route edges="e9"/>
    </vehicle>
    <vehicle id="veh706" depart="3594.00">
        <route edges="e1 e9 e10"/>
    </vehicle>
    <vehicle id="veh707" depart="3599.00">
        <route edges="e1 e9 e4"/>
    </vehicle>
</routes>
