<?xml version="1.0" encoding="UTF-8"?>

<!-- generated on 2025-04-22 16:39:03.815228 by randomTrips.py UNKNOWN
<configuration>
    <net-file value="vuna.net.xml"/>
    <output-trip-file value="vuna.rou.xml"/>
    <route-file value="vuna.trips.xml"/>
    <prefix value="veh"/>
    <trip-attributes value="departLane=&quot;best&quot; departSpeed=&quot;max&quot; departPos=&quot;random&quot;"/>
    <validate value="True"/>
</configuration>
-->

<!-- generated on 2025-04-22 16:39:03 by Eclipse SUMO duarouter Version 1.22.0
<duarouterConfiguration xmlns:xsi="http://www.w3.org/2001/XMLSchema-instance" xsi:noNamespaceSchemaLocation="http://sumo.dlr.de/xsd/duarouterConfiguration.xsd">

    <input>
        <net-file value="vuna.net.xml"/>
        <route-files value="vuna.rou.xml"/>
    </input>

    <output>
        <output-file value="vuna.rou.xml.tmp"/>
        <alternatives-output value="NUL"/>
        <write-trips value="true"/>
    </output>

    <time>
        <begin value="0"/>
        <end value="3600.0"/>
    </time>

    <report>
        <no-warnings value="true"/>
        <ignore-errors value="true"/>
        <no-step-log value="true"/>
    </report>

</duarouterConfiguration>
-->

<routes xmlns:xsi="http://www.w3.org/2001/XMLSchema-instance" xsi:noNamespaceSchemaLocation="http://sumo.dlr.de/xsd/routes_file.xsd">
    <trip id="veh1" depart="1.00" departLane="best" departPos="random" departSpeed="max" from="e11" to="e12"/>
    <trip id="veh2" depart="2.00" departLane="best" departPos="random" departSpeed="max" from="e7" to="e5"/>
    <trip id="veh4" depart="4.00" departLane="best" departPos="random" departSpeed="max" from="e3" to="e10"/>
    <trip id="veh6" depart="6.00" departLane="best" departPos="random" departSpeed="max" from="e1" to="e11"/>
    <trip id="veh10" depart="10.00" departLane="best" departPos="random" departSpeed="max" from="e8" to="e5"/>
    <trip id="veh11" depart="11.00" departLane="best" departPos="random" departSpeed="max" from="e2" to="e11"/>
    <trip id="veh13" depart="13.00" departLane="best" departPos="random" departSpeed="max" from="e1" to="e10"/>
    <trip id="veh14" depart="14.00" departLane="best" departPos="random" departSpeed="max" from="e8" to="e5"/>
    <trip id="veh15" depart="15.00" departLane="best" departPos="random" departSpeed="max" from="e8" to="e6"/>
    <trip id="veh18" depart="18.00" departLane="best" departPos="random" departSpeed="max" from="e8" to="e5"/>
    <trip id="veh20" depart="20.00" departLane="best" departPos="random" departSpeed="max" from="e7" to="e10"/>
    <trip id="veh21" depart="21.00" departLane="best" departPos="random" departSpeed="max" from="e11" to="e12"/>
    <trip id="veh22" depart="22.00" departLane="best" departPos="random" departSpeed="max" from="e1" to="e12"/>
    <trip id="veh25" depart="25.00" departLane="best" departPos="random" departSpeed="max" from="e2" to="e12"/>
    <trip id="veh27" depart="27.00" departLane="best" departPos="random" departSpeed="max" from="e5" to="e5"/>
    <trip id="veh28" depart="28.00" departLane="best" departPos="random" departSpeed="max" from="e10" to="e6"/>
    <trip id="veh32" depart="32.00" departLane="best" departPos="random" departSpeed="max" from="e8" to="e6"/>
    <trip id="veh34" depart="34.00" departLane="best" departPos="random" departSpeed="max" from="e2" to="e12"/>
    <trip id="veh39" depart="39.00" departLane="best" departPos="random" departSpeed="max" from="e11" to="e12"/>
    <trip id="veh40" depart="40.00" departLane="best" departPos="random" departSpeed="max" from="e4" to="e12"/>
    <trip id="veh42" depart="42.00" departLane="best" departPos="random" departSpeed="max" from="e2" to="e12"/>
    <trip id="veh43" depart="43.00" departLane="best" departPos="random" departSpeed="max" from="e9" to="e4"/>
    <trip id="veh44" depart="44.00" departLane="best" departPos="random" departSpeed="max" from="e1" to="e10"/>
    <trip id="veh46" depart="46.00" departLane="best" departPos="random" departSpeed="max" from="e7" to="e3"/>
    <trip id="veh47" depart="47.00" departLane="best" departPos="random" departSpeed="max" from="e1" to="e2"/>
    <trip id="veh48" depart="48.00" departLane="best" departPos="random" departSpeed="max" from="e9" to="e4"/>
    <trip id="veh50" depart="50.00" departLane="best" departPos="random" departSpeed="max" from="e1" to="e6"/>
    <trip id="veh60" depart="60.00" departLane="best" departPos="random" departSpeed="max" from="e7" to="e4"/>
    <trip id="veh61" depart="61.00" departLane="best" departPos="random" departSpeed="max" from="e7" to="e4"/>
    <trip id="veh62" depart="62.00" departLane="best" departPos="random" departSpeed="max" from="e1" to="e2"/>
    <trip id="veh63" depart="63.00" departLane="best" departPos="random" departSpeed="max" from="e1" to="e9"/>
    <trip id="veh64" depart="64.00" departLane="best" departPos="random" departSpeed="max" from="e8" to="e8"/>
    <trip id="veh68" depart="68.00" departLane="best" departPos="random" departSpeed="max" from="e1" to="e6"/>
    <trip id="veh70" depart="70.00" departLane="best" departPos="random" departSpeed="max" from="e3" to="e4"/>
    <trip id="veh72" depart="72.00" departLane="best" departPos="random" departSpeed="max" from="e3" to="e12"/>
    <trip id="veh76" depart="76.00" departLane="best" departPos="random" departSpeed="max" from="e3" to="e4"/>
    <trip id="veh79" depart="79.00" departLane="best" departPos="random" departSpeed="max" from="e11" to="e12"/>
    <trip id="veh84" depart="84.00" departLane="best" departPos="random" departSpeed="max" from="e11" to="e11"/>
    <trip id="veh85" depart="85.00" departLane="best" departPos="random" departSpeed="max" from="e9" to="e4"/>
    <trip id="veh86" depart="86.00" departLane="best" departPos="random" departSpeed="max" from="e3" to="e6"/>
    <trip id="veh89" depart="89.00" departLane="best" departPos="random" departSpeed="max" from="e3" to="e3"/>
    <trip id="veh90" depart="90.00" departLane="best" departPos="random" departSpeed="max" from="e7" to="e5"/>
    <trip id="veh91" depart="91.00" departLane="best" departPos="random" departSpeed="max" from="e9" to="e10"/>
    <trip id="veh95" depart="95.00" departLane="best" departPos="random" departSpeed="max" from="e3" to="e12"/>
    <trip id="veh100" depart="100.00" departLane="best" departPos="random" departSpeed="max" from="e9" to="e9"/>
    <trip id="veh102" depart="102.00" departLane="best" departPos="random" departSpeed="max" from="e3" to="e12"/>
    <trip id="veh103" depart="103.00" departLane="best" departPos="random" departSpeed="max" from="e3" to="e10"/>
    <trip id="veh106" depart="106.00" departLane="best" departPos="random" departSpeed="max" from="e3" to="e3"/>
    <trip id="veh107" depart="107.00" departLane="best" departPos="random" departSpeed="max" from="e9" to="e9"/>
    <trip id="veh110" depart="110.00" departLane="best" departPos="random" departSpeed="max" from="e9" to="e4"/>
    <trip id="veh112" depart="112.00" departLane="best" departPos="random" departSpeed="max" from="e1" to="e4"/>
    <trip id="veh115" depart="115.00" departLane="best" departPos="random" departSpeed="max" from="e1" to="e11"/>
    <trip id="veh117" depart="117.00" departLane="best" departPos="random" departSpeed="max" from="e11" to="e11"/>
    <trip id="veh120" depart="120.00" departLane="best" departPos="random" departSpeed="max" from="e3" to="e4"/>
    <trip id="veh127" depart="127.00" departLane="best" departPos="random" departSpeed="max" from="e9" to="e9"/>
    <trip id="veh128" depart="128.00" departLane="best" departPos="random" departSpeed="max" from="e1" to="e12"/>
    <trip id="veh130" depart="130.00" departLane="best" departPos="random" departSpeed="max" from="e8" to="e8"/>
    <trip id="veh131" depart="131.00" departLane="best" departPos="random" departSpeed="max" from="e2" to="e11"/>
    <trip id="veh132" depart="132.00" departLane="best" departPos="random" departSpeed="max" from="e8" to="e6"/>
    <trip id="veh140" depart="140.00" departLane="best" departPos="random" departSpeed="max" from="e7" to="e12"/>
    <trip id="veh144" depart="144.00" departLane="best" departPos="random" departSpeed="max" from="e3" to="e12"/>
    <trip id="veh145" depart="145.00" departLane="best" departPos="random" departSpeed="max" from="e1" to="e6"/>
    <trip id="veh147" depart="147.00" departLane="best" departPos="random" departSpeed="max" from="e7" to="e4"/>
    <trip id="veh148" depart="148.00" departLane="best" departPos="random" departSpeed="max" from="e3" to="e10"/>
    <trip id="veh150" depart="150.00" departLane="best" departPos="random" departSpeed="max" from="e9" to="e4"/>
    <trip id="veh154" depart="154.00" departLane="best" departPos="random" departSpeed="max" from="e7" to="e8"/>
    <trip id="veh156" depart="156.00" departLane="best" departPos="random" departSpeed="max" from="e11" to="e11"/>
    <trip id="veh157" depart="157.00" departLane="best" departPos="random" departSpeed="max" from="e7" to="e8"/>
    <trip id="veh161" depart="161.00" departLane="best" departPos="random" departSpeed="max" from="e8" to="e8"/>
    <trip id="veh162" depart="162.00" departLane="best" departPos="random" departSpeed="max" from="e1" to="e6"/>
    <trip id="veh164" depart="164.00" departLane="best" departPos="random" departSpeed="max" from="e8" to="e8"/>
    <trip id="veh167" depart="167.00" departLane="best" departPos="random" departSpeed="max" from="e8" to="e8"/>
    <trip id="veh170" depart="170.00" departLane="best" departPos="random" departSpeed="max" from="e7" to="e12"/>
    <trip id="veh171" depart="171.00" departLane="best" departPos="random" departSpeed="max" from="e1" to="e11"/>
    <trip id="veh173" depart="173.00" departLane="best" departPos="random" departSpeed="max" from="e9" to="e12"/>
    <trip id="veh175" depart="175.00" departLane="best" departPos="random" departSpeed="max" from="e9" to="e4"/>
    <trip id="veh178" depart="178.00" departLane="best" departPos="random" departSpeed="max" from="e9" to="e12"/>
    <trip id="veh184" depart="184.00" departLane="best" departPos="random" departSpeed="max" from="e1" to="e9"/>
    <trip id="veh186" depart="186.00" departLane="best" departPos="random" departSpeed="max" from="e7" to="e5"/>
    <trip id="veh192" depart="192.00" departLane="best" departPos="random" departSpeed="max" from="e3" to="e12"/>
    <trip id="veh197" depart="197.00" departLane="best" departPos="random" departSpeed="max" from="e1" to="e12"/>
    <trip id="veh198" depart="198.00" departLane="best" departPos="random" departSpeed="max" from="e3" to="e4"/>
    <trip id="veh200" depart="200.00" departLane="best" departPos="random" departSpeed="max" from="e3" to="e12"/>
    <trip id="veh203" depart="203.00" departLane="best" departPos="random" departSpeed="max" from="e1" to="e4"/>
    <trip id="veh205" depart="205.00" departLane="best" departPos="random" departSpeed="max" from="e8" to="e6"/>
    <trip id="veh207" depart="207.00" departLane="best" departPos="random" departSpeed="max" from="e10" to="e10"/>
    <trip id="veh212" depart="212.00" departLane="best" departPos="random" departSpeed="max" from="e3" to="e12"/>
    <trip id="veh214" depart="214.00" departLane="best" departPos="random" departSpeed="max" from="e7" to="e6"/>
    <trip id="veh222" depart="222.00" departLane="best" departPos="random" departSpeed="max" from="e8" to="e5"/>
    <trip id="veh223" depart="223.00" departLane="best" departPos="random" departSpeed="max" from="e7" to="e4"/>
    <trip id="veh225" depart="225.00" departLane="best" departPos="random" departSpeed="max" from="e8" to="e6"/>
    <trip id="veh226" depart="226.00" departLane="best" departPos="random" departSpeed="max" from="e3" to="e12"/>
    <trip id="veh228" depart="228.00" departLane="best" departPos="random" departSpeed="max" from="e7" to="e4"/>
    <trip id="veh230" depart="230.00" departLane="best" departPos="random" departSpeed="max" from="e1" to="e12"/>
    <trip id="veh234" depart="234.00" departLane="best" departPos="random" departSpeed="max" from="e7" to="e10"/>
    <trip id="veh235" depart="235.00" departLane="best" departPos="random" departSpeed="max" from="e3" to="e4"/>
    <trip id="veh236" depart="236.00" departLane="best" departPos="random" departSpeed="max" from="e3" to="e12"/>
    <trip id="veh239" depart="239.00" departLane="best" departPos="random" departSpeed="max" from="e8" to="e6"/>
    <trip id="veh243" depart="243.00" departLane="best" departPos="random" departSpeed="max" from="e3" to="e6"/>
    <trip id="veh245" depart="245.00" departLane="best" departPos="random" departSpeed="max" from="e11" to="e12"/>
    <trip id="veh246" depart="246.00" departLane="best" departPos="random" departSpeed="max" from="e3" to="e10"/>
    <trip id="veh254" depart="254.00" departLane="best" departPos="random" departSpeed="max" from="e1" to="e2"/>
    <trip id="veh257" depart="257.00" departLane="best" departPos="random" departSpeed="max" from="e7" to="e8"/>
    <trip id="veh259" depart="259.00" departLane="best" departPos="random" departSpeed="max" from="e1" to="e4"/>
    <trip id="veh261" depart="261.00" departLane="best" departPos="random" departSpeed="max" from="e5" to="e6"/>
    <trip id="veh262" depart="262.00" departLane="best" departPos="random" departSpeed="max" from="e5" to="e6"/>
    <trip id="veh264" depart="264.00" departLane="best" departPos="random" departSpeed="max" from="e1" to="e11"/>
    <trip id="veh266" depart="266.00" departLane="best" departPos="random" departSpeed="max" from="e4" to="e12"/>
    <trip id="veh267" depart="267.00" departLane="best" departPos="random" departSpeed="max" from="e5" to="e6"/>
    <trip id="veh271" depart="271.00" departLane="best" departPos="random" departSpeed="max" from="e10" to="e10"/>
    <trip id="veh274" depart="274.00" departLane="best" departPos="random" departSpeed="max" from="e7" to="e10"/>
    <trip id="veh275" depart="275.00" departLane="best" departPos="random" departSpeed="max" from="e5" to="e5"/>
    <trip id="veh276" depart="276.00" departLane="best" departPos="random" departSpeed="max" from="e10" to="e6"/>
    <trip id="veh277" depart="277.00" departLane="best" departPos="random" departSpeed="max" from="e8" to="e5"/>
    <trip id="veh282" depart="282.00" departLane="best" departPos="random" departSpeed="max" from="e8" to="e8"/>
    <trip id="veh285" depart="285.00" departLane="best" departPos="random" departSpeed="max" from="e7" to="e3"/>
    <trip id="veh289" depart="289.00" departLane="best" departPos="random" departSpeed="max" from="e3" to="e6"/>
    <trip id="veh298" depart="298.00" departLane="best" departPos="random" departSpeed="max" from="e7" to="e12"/>
    <trip id="veh299" depart="299.00" departLane="best" departPos="random" departSpeed="max" from="e1" to="e9"/>
    <trip id="veh300" depart="300.00" departLane="best" departPos="random" departSpeed="max" from="e1" to="e6"/>
    <trip id="veh301" depart="301.00" departLane="best" departPos="random" departSpeed="max" from="e3" to="e6"/>
    <trip id="veh302" depart="302.00" departLane="best" departPos="random" departSpeed="max" from="e5" to="e5"/>
    <trip id="veh303" depart="303.00" departLane="best" departPos="random" departSpeed="max" from="e3" to="e6"/>
    <trip id="veh304" depart="304.00" departLane="best" departPos="random" departSpeed="max" from="e1" to="e12"/>
    <trip id="veh309" depart="309.00" departLane="best" departPos="random" departSpeed="max" from="e7" to="e12"/>
    <trip id="veh310" depart="310.00" departLane="best" departPos="random" departSpeed="max" from="e11" to="e11"/>
    <trip id="veh314" depart="314.00" departLane="best" departPos="random" departSpeed="max" from="e3" to="e6"/>
    <trip id="veh315" depart="315.00" departLane="best" departPos="random" departSpeed="max" from="e9" to="e4"/>
    <trip id="veh316" depart="316.00" departLane="best" departPos="random" departSpeed="max" from="e11" to="e11"/>
    <trip id="veh318" depart="318.00" departLane="best" departPos="random" departSpeed="max" from="e10" to="e10"/>
    <trip id="veh319" depart="319.00" departLane="best" departPos="random" departSpeed="max" from="e4" to="e12"/>
    <trip id="veh320" depart="320.00" departLane="best" departPos="random" departSpeed="max" from="e9" to="e4"/>
    <trip id="veh324" depart="324.00" departLane="best" departPos="random" departSpeed="max" from="e3" to="e3"/>
    <trip id="veh325" depart="325.00" departLane="best" departPos="random" departSpeed="max" from="e10" to="e10"/>
    <trip id="veh329" depart="329.00" departLane="best" departPos="random" departSpeed="max" from="e1" to="e11"/>
    <trip id="veh332" depart="332.00" departLane="best" departPos="random" departSpeed="max" from="e7" to="e5"/>
    <trip id="veh333" depart="333.00" departLane="best" departPos="random" departSpeed="max" from="e7" to="e12"/>
    <trip id="veh337" depart="337.00" departLane="best" departPos="random" departSpeed="max" from="e5" to="e5"/>
    <trip id="veh339" depart="339.00" departLane="best" departPos="random" departSpeed="max" from="e11" to="e12"/>
    <trip id="veh341" depart="341.00" departLane="best" departPos="random" departSpeed="max" from="e10" to="e10"/>
    <trip id="veh343" depart="343.00" departLane="best" departPos="random" departSpeed="max" from="e4" to="e12"/>
    <trip id="veh345" depart="345.00" departLane="best" departPos="random" departSpeed="max" from="e7" to="e3"/>
    <trip id="veh347" depart="347.00" departLane="best" departPos="random" departSpeed="max" from="e7" to="e5"/>
    <trip id="veh349" depart="349.00" departLane="best" departPos="random" departSpeed="max" from="e3" to="e4"/>
    <trip id="veh353" depart="353.00" departLane="best" departPos="random" departSpeed="max" from="e7" to="e4"/>
    <trip id="veh354" depart="354.00" departLane="best" departPos="random" departSpeed="max" from="e11" to="e11"/>
    <trip id="veh355" depart="355.00" departLane="best" departPos="random" departSpeed="max" from="e5" to="e5"/>
    <trip id="veh356" depart="356.00" departLane="best" departPos="random" departSpeed="max" from="e9" to="e4"/>
    <trip id="veh357" depart="357.00" departLane="best" departPos="random" departSpeed="max" from="e3" to="e10"/>
    <trip id="veh359" depart="359.00" departLane="best" departPos="random" departSpeed="max" from="e2" to="e12"/>
    <trip id="veh360" depart="360.00" departLane="best" departPos="random" departSpeed="max" from="e1" to="e9"/>
    <trip id="veh362" depart="362.00" departLane="best" departPos="random" departSpeed="max" from="e9" to="e9"/>
    <trip id="veh364" depart="364.00" departLane="best" departPos="random" departSpeed="max" from="e1" to="e6"/>
    <trip id="veh368" depart="368.00" departLane="best" departPos="random" departSpeed="max" from="e3" to="e10"/>
    <trip id="veh369" depart="369.00" departLane="best" departPos="random" departSpeed="max" from="e2" to="e2"/>
    <trip id="veh376" depart="376.00" departLane="best" departPos="random" departSpeed="max" from="e3" to="e4"/>
    <trip id="veh380" depart="380.00" departLane="best" departPos="random" departSpeed="max" from="e7" to="e5"/>
    <trip id="veh381" depart="381.00" departLane="best" departPos="random" departSpeed="max" from="e7" to="e12"/>
    <trip id="veh388" depart="388.00" departLane="best" departPos="random" departSpeed="max" from="e9" to="e9"/>
    <trip id="veh391" depart="391.00" departLane="best" departPos="random" departSpeed="max" from="e7" to="e4"/>
    <trip id="veh393" depart="393.00" departLane="best" departPos="random" departSpeed="max" from="e9" to="e12"/>
    <trip id="veh395" depart="395.00" departLane="best" departPos="random" departSpeed="max" from="e9" to="e4"/>
    <trip id="veh396" depart="396.00" departLane="best" departPos="random" departSpeed="max" from="e8" to="e8"/>
    <trip id="veh400" depart="400.00" departLane="best" departPos="random" departSpeed="max" from="e11" to="e12"/>
    <trip id="veh404" depart="404.00" departLane="best" departPos="random" departSpeed="max" from="e4" to="e4"/>
    <trip id="veh407" depart="407.00" departLane="best" departPos="random" departSpeed="max" from="e4" to="e12"/>
    <trip id="veh408" depart="408.00" departLane="best" departPos="random" departSpeed="max" from="e7" to="e10"/>
    <trip id="veh409" depart="409.00" departLane="best" departPos="random" departSpeed="max" from="e7" to="e6"/>
    <trip id="veh413" depart="413.00" departLane="best" departPos="random" departSpeed="max" from="e1" to="e4"/>
    <trip id="veh417" depart="417.00" departLane="best" departPos="random" departSpeed="max" from="e7" to="e3"/>
    <trip id="veh422" depart="422.00" departLane="best" departPos="random" departSpeed="max" from="e8" to="e8"/>
    <trip id="veh423" depart="423.00" departLane="best" departPos="random" departSpeed="max" from="e2" to="e2"/>
    <trip id="veh424" depart="424.00" departLane="best" departPos="random" departSpeed="max" from="e7" to="e6"/>
    <trip id="veh427" depart="427.00" departLane="best" departPos="random" departSpeed="max" from="e9" to="e9"/>
    <trip id="veh428" depart="428.00" departLane="best" departPos="random" departSpeed="max" from="e7" to="e3"/>
    <trip id="veh432" depart="432.00" departLane="best" departPos="random" departSpeed="max" from="e1" to="e6"/>
    <trip id="veh436" depart="436.00" departLane="best" departPos="random" departSpeed="max" from="e10" to="e10"/>
    <trip id="veh437" depart="437.00" departLane="best" departPos="random" departSpeed="max" from="e8" to="e5"/>
    <trip id="veh440" depart="440.00" departLane="best" departPos="random" departSpeed="max" from="e11" to="e12"/>
    <trip id="veh448" depart="448.00" departLane="best" departPos="random" departSpeed="max" from="e3" to="e12"/>
    <trip id="veh449" depart="449.00" departLane="best" departPos="random" departSpeed="max" from="e4" to="e4"/>
    <trip id="veh450" depart="450.00" departLane="best" departPos="random" departSpeed="max" from="e9" to="e12"/>
    <trip id="veh453" depart="453.00" departLane="best" departPos="random" departSpeed="max" from="e5" to="e6"/>
    <trip id="veh458" depart="458.00" departLane="best" departPos="random" departSpeed="max" from="e5" to="e5"/>
    <trip id="veh459" depart="459.00" departLane="best" departPos="random" departSpeed="max" from="e5" to="e6"/>
    <trip id="veh463" depart="463.00" departLane="best" departPos="random" departSpeed="max" from="e3" to="e4"/>
    <trip id="veh464" depart="464.00" departLane="best" departPos="random" departSpeed="max" from="e7" to="e10"/>
    <trip id="veh471" depart="471.00" departLane="best" departPos="random" departSpeed="max" from="e8" to="e6"/>
    <trip id="veh472" depart="472.00" departLane="best" departPos="random" departSpeed="max" from="e2" to="e11"/>
    <trip id="veh478" depart="478.00" departLane="best" departPos="random" departSpeed="max" from="e1" to="e4"/>
    <trip id="veh492" depart="492.00" departLane="best" departPos="random" departSpeed="max" from="e5" to="e6"/>
    <trip id="veh495" depart="495.00" departLane="best" departPos="random" departSpeed="max" from="e3" to="e10"/>
    <trip id="veh496" depart="496.00" departLane="best" departPos="random" departSpeed="max" from="e3" to="e3"/>
    <trip id="veh497" depart="497.00" departLane="best" departPos="random" departSpeed="max" from="e9" to="e10"/>
    <trip id="veh502" depart="502.00" departLane="best" departPos="random" departSpeed="max" from="e2" to="e2"/>
    <trip id="veh505" depart="505.00" departLane="best" departPos="random" departSpeed="max" from="e5" to="e5"/>
    <trip id="veh507" depart="507.00" departLane="best" departPos="random" departSpeed="max" from="e7" to="e12"/>
    <trip id="veh509" depart="509.00" departLane="best" departPos="random" departSpeed="max" from="e1" to="e6"/>
    <trip id="veh510" depart="510.00" departLane="best" departPos="random" departSpeed="max" from="e11" to="e12"/>
    <trip id="veh515" depart="515.00" departLane="best" departPos="random" departSpeed="max" from="e11" to="e11"/>
    <trip id="veh517" depart="517.00" departLane="best" departPos="random" departSpeed="max" from="e1" to="e6"/>
    <trip id="veh519" depart="519.00" departLane="best" departPos="random" departSpeed="max" from="e10" to="e10"/>
    <trip id="veh520" depart="520.00" departLane="best" departPos="random" departSpeed="max" from="e7" to="e4"/>
    <trip id="veh521" depart="521.00" departLane="best" departPos="random" departSpeed="max" from="e7" to="e3"/>
    <trip id="veh522" depart="522.00" departLane="best" departPos="random" departSpeed="max" from="e7" to="e4"/>
    <trip id="veh524" depart="524.00" departLane="best" departPos="random" departSpeed="max" from="e9" to="e10"/>
    <trip id="veh525" depart="525.00" departLane="best" departPos="random" departSpeed="max" from="e7" to="e8"/>
    <trip id="veh527" depart="527.00" departLane="best" departPos="random" departSpeed="max" from="e9" to="e10"/>
    <trip id="veh528" depart="528.00" departLane="best" departPos="random" departSpeed="max" from="e3" to="e3"/>
    <trip id="veh530" depart="530.00" departLane="best" departPos="random" departSpeed="max" from="e9" to="e10"/>
    <trip id="veh532" depart="532.00" departLane="best" departPos="random" departSpeed="max" from="e1" to="e12"/>
    <trip id="veh537" depart="537.00" departLane="best" departPos="random" departSpeed="max" from="e7" to="e8"/>
    <trip id="veh538" depart="538.00" departLane="best" departPos="random" departSpeed="max" from="e5" to="e6"/>
    <trip id="veh539" depart="539.00" departLane="best" departPos="random" departSpeed="max" from="e7" to="e12"/>
    <trip id="veh540" depart="540.00" departLane="best" departPos="random" departSpeed="max" from="e3" to="e12"/>
    <trip id="veh542" depart="542.00" departLane="best" departPos="random" departSpeed="max" from="e3" to="e10"/>
    <trip id="veh544" depart="544.00" departLane="best" departPos="random" departSpeed="max" from="e2" to="e11"/>
    <trip id="veh545" depart="545.00" departLane="best" departPos="random" departSpeed="max" from="e9" to="e10"/>
    <trip id="veh547" depart="547.00" departLane="best" departPos="random" departSpeed="max" from="e1" to="e6"/>
    <trip id="veh549" depart="549.00" departLane="best" departPos="random" departSpeed="max" from="e4" to="e4"/>
    <trip id="veh550" depart="550.00" departLane="best" departPos="random" departSpeed="max" from="e2" to="e11"/>
    <trip id="veh552" depart="552.00" departLane="best" departPos="random" departSpeed="max" from="e7" to="e8"/>
    <trip id="veh555" depart="555.00" departLane="best" departPos="random" departSpeed="max" from="e4" to="e12"/>
    <trip id="veh561" depart="561.00" departLane="best" departPos="random" departSpeed="max" from="e8" to="e5"/>
    <trip id="veh564" depart="564.00" departLane="best" departPos="random" departSpeed="max" from="e11" to="e11"/>
    <trip id="veh570" depart="570.00" departLane="best" departPos="random" departSpeed="max" from="e7" to="e12"/>
    <trip id="veh573" depart="573.00" departLane="best" departPos="random" departSpeed="max" from="e7" to="e4"/>
    <trip id="veh574" depart="574.00" departLane="best" departPos="random" departSpeed="max" from="e1" to="e10"/>
    <trip id="veh578" depart="578.00" departLane="best" departPos="random" departSpeed="max" from="e3" to="e12"/>
    <trip id="veh580" depart="580.00" departLane="best" departPos="random" departSpeed="max" from="e3" to="e12"/>
    <trip id="veh584" depart="584.00" departLane="best" departPos="random" departSpeed="max" from="e1" to="e2"/>
    <trip id="veh585" depart="585.00" departLane="best" departPos="random" departSpeed="max" from="e11" to="e11"/>
    <trip id="veh587" depart="587.00" departLane="best" departPos="random" departSpeed="max" from="e1" to="e6"/>
    <trip id="veh589" depart="589.00" departLane="best" departPos="random" departSpeed="max" from="e7" to="e4"/>
    <trip id="veh590" depart="590.00" departLane="best" departPos="random" departSpeed="max" from="e8" to="e8"/>
    <trip id="veh592" depart="592.00" departLane="best" departPos="random" departSpeed="max" from="e1" to="e10"/>
    <trip id="veh594" depart="594.00" departLane="best" departPos="random" departSpeed="max" from="e4" to="e4"/>
    <trip id="veh595" depart="595.00" departLane="best" departPos="random" departSpeed="max" from="e7" to="e3"/>
    <trip id="veh596" depart="596.00" departLane="best" departPos="random" departSpeed="max" from="e10" to="e10"/>
    <trip id="veh599" depart="599.00" departLane="best" departPos="random" departSpeed="max" from="e9" to="e10"/>
    <trip id="veh601" depart="601.00" departLane="best" departPos="random" departSpeed="max" from="e4" to="e4"/>
    <trip id="veh602" depart="602.00" departLane="best" departPos="random" departSpeed="max" from="e2" to="e2"/>
    <trip id="veh603" depart="603.00" departLane="best" departPos="random" departSpeed="max" from="e2" to="e2"/>
    <trip id="veh607" depart="607.00" departLane="best" departPos="random" departSpeed="max" from="e7" to="e8"/>
    <trip id="veh610" depart="610.00" departLane="best" departPos="random" departSpeed="max" from="e5" to="e6"/>
    <trip id="veh612" depart="612.00" departLane="best" departPos="random" departSpeed="max" from="e7" to="e3"/>
    <trip id="veh613" depart="613.00" departLane="best" departPos="random" departSpeed="max" from="e7" to="e6"/>
    <trip id="veh619" depart="619.00" departLane="best" departPos="random" departSpeed="max" from="e2" to="e12"/>
    <trip id="veh620" depart="620.00" departLane="best" departPos="random" departSpeed="max" from="e1" to="e4"/>
    <trip id="veh624" depart="624.00" departLane="best" departPos="random" departSpeed="max" from="e8" to="e5"/>
    <trip id="veh628" depart="628.00" departLane="best" departPos="random" departSpeed="max" from="e8" to="e5"/>
    <trip id="veh630" depart="630.00" departLane="best" departPos="random" departSpeed="max" from="e10" to="e10"/>
    <trip id="veh635" depart="635.00" departLane="best" departPos="random" departSpeed="max" from="e3" to="e4"/>