<?xml version="1.0" encoding="UTF-8"?>

<!-- generated on 2025-04-22 16:36:15 by Eclipse SUMO netconvert Version 1.22.0
<netconvertConfiguration xmlns:xsi="http://www.w3.org/2001/XMLSchema-instance" xsi:noNamespaceSchemaLocation="http://sumo.dlr.de/xsd/netconvertConfiguration.xsd">

    <input>
        <node-files value="vuna_nodes.nod.xml"/>
        <edge-files value="vuna_edges.edg.xml"/>
        <type-files value="vuna_types.type.xml"/>
    </input>

    <output>
        <output-file value="vuna.net.xml"/>
    </output>

</netconvertConfiguration>
-->

<net version="1.20" junctionCornerDetail="5" limitTurnSpeed="5.50" xmlns:xsi="http://www.w3.org/2001/XMLSchema-instance" xsi:noNamespaceSchemaLocation="http://sumo.dlr.de/xsd/net_file.xsd">

    <location netOffset="0.00,0.00" convBoundary="0.00,0.00,200.00,200.00" origBoundary="0.00,0.00,200.00,200.00" projParameter="!"/>

    <type id="highway" numLanes="3" speed="27.78"/>
    <type id="residential" numLanes="1" speed="8.33"/>
    <type id="urban" numLanes="2" speed="13.89"/>

    <edge id=":n2_0" function="internal">
        <lane id=":n2_0_0" index="0" speed="13.89" length="14.40" shape="96.00,-4.80 110.40,-4.80"/>
        <lane id=":n2_0_1" index="1" speed="13.89" length="14.40" shape="96.00,-1.60 110.40,-1.60"/>
    </edge>
    <edge id=":n2_2" function="internal">
        <lane id=":n2_2_0" index="0" speed="7.33" length="11.73" shape="96.00,-1.60 99.85,-1.25 102.60,-0.20 104.25,1.55 104.80,4.00"/>
        <lane id=":n2_2_1" index="1" speed="6.51" length="9.03" shape="96.00,-1.60 98.45,-1.25 100.20,-0.20 101.25,1.55 101.60,4.00"/>
    </edge>
    <edge id=":n3_0" function="internal">
        <lane id=":n3_0_0" index="0" speed="6.51" length="9.03" shape="196.00,-1.60 198.45,-1.25 200.20,-0.20 201.25,1.55 201.60,4.00"/>
    </edge>
    <edge id=":n4_0" function="internal">
        <lane id=":n4_0_0" index="0" speed="6.51" length="9.03" shape="8.00,89.60 8.35,92.05 9.40,93.80 11.15,94.85 13.60,95.20"/>
        <lane id=":n4_0_1" index="1" speed="7.33" length="11.73" shape="8.00,89.60 8.35,93.45 9.40,96.20 11.15,97.85 13.60,98.40"/>
    </edge>
    <edge id=":n4_2" function="internal">
        <lane id=":n4_2_0" index="0" speed="27.78" length="14.40" shape="8.00,89.60 8.00,104.00"/>
        <lane id=":n4_2_1" index="1" speed="27.78" length="14.40" shape="4.80,89.60 4.80,104.00"/>
        <lane id=":n4_2_2" index="2" speed="27.78" length="14.40" shape="1.60,89.60 1.60,104.00"/>
    </edge>
    <edge id=":n5_0" function="internal">
        <lane id=":n5_0_0" index="0" speed="6.51" length="9.03" shape="104.80,89.60 105.15,92.05 106.20,93.80 107.95,94.85 110.40,95.20"/>
    </edge>
    <edge id=":n5_1" function="internal">
        <lane id=":n5_1_0" index="0" speed="13.89" length="14.40" shape="104.80,89.60 104.80,104.00"/>
        <lane id=":n5_1_1" index="1" speed="13.89" length="14.40" shape="101.60,89.60 101.60,104.00"/>
    </edge>
    <edge id=":n5_3" function="internal">
        <lane id=":n5_3_0" index="0" speed="13.89" length="14.40" shape="96.00,95.20 110.40,95.20"/>
        <lane id=":n5_3_1" index="1" speed="13.89" length="14.40" shape="96.00,98.40 110.40,98.40"/>
    </edge>
    <edge id=":n5_5" function="internal">
        <lane id=":n5_5_0" index="0" speed="6.51" length="9.03" shape="96.00,98.40 98.45,98.75 100.20,99.80 101.25,101.55 101.60,104.00"/>
    </edge>
    <edge id=":n6_0" function="internal">
        <lane id=":n6_0_0" index="0" speed="8.33" length="14.40" shape="201.60,89.60 201.60,104.00"/>
    </edge>
    <edge id=":n6_1" function="internal">
        <lane id=":n6_1_0" index="0" speed="7.33" length="11.73" shape="196.00,95.20 198.45,95.75 200.20,97.40 201.25,100.15 201.60,104.00"/>
    </edge>
    <edge id=":n7_0" function="internal">
        <lane id=":n7_0_0" index="0" speed="8.10" length="14.57" shape="1.60,192.80 2.35,195.25 4.60,197.00 8.35,198.05 13.60,198.40"/>
    </edge>
    <edge id=":n8_0" function="internal">
        <lane id=":n8_0_0" index="0" speed="6.51" length="9.03" shape="104.80,192.80 105.15,195.25 106.20,197.00 107.95,198.05 110.40,198.40"/>
    </edge>
    <edge id=":n8_1" function="internal">
        <lane id=":n8_1_0" index="0" speed="8.33" length="14.40" shape="96.00,198.40 110.40,198.40"/>
    </edge>

    <edge id="e1" from="n1" to="n2" priority="-1" type="urban">
        <lane id="e1_0" index="0" speed="13.89" length="84.90" shape="11.10,-4.80 96.00,-4.80"/>
        <lane id="e1_1" index="1" speed="13.89" length="84.90" shape="11.10,-1.60 96.00,-1.60"/>
    </edge>
    <edge id="e10" from="n5" to="n8" priority="-1" type="urban">
        <lane id="e10_0" index="0" speed="13.89" length="88.80" shape="104.80,104.00 104.80,192.80"/>
        <lane id="e10_1" index="1" speed="13.89" length="88.80" shape="101.60,104.00 101.60,192.80"/>
    </edge>
    <edge id="e11" from="n3" to="n6" priority="-1" type="residential">
        <lane id="e11_0" index="0" speed="8.33" length="85.60" shape="201.60,4.00 201.60,89.60"/>
    </edge>
    <edge id="e12" from="n6" to="n9" priority="-1" type="residential">
        <lane id="e12_0" index="0" speed="8.33" length="91.30" shape="201.60,104.00 201.60,195.30"/>
    </edge>
    <edge id="e2" from="n2" to="n3" priority="-1" type="urban">
        <lane id="e2_0" index="0" speed="13.89" length="85.60" shape="110.40,-4.80 196.00,-4.80"/>
        <lane id="e2_1" index="1" speed="13.89" length="85.60" shape="110.40,-1.60 196.00,-1.60"/>
    </edge>
    <edge id="e3" from="n4" to="n5" priority="-1" type="urban">
        <lane id="e3_0" index="0" speed="13.89" length="82.40" shape="13.60,95.20 96.00,95.20"/>
        <lane id="e3_1" index="1" speed="13.89" length="82.40" shape="13.60,98.40 96.00,98.40"/>
    </edge>
    <edge id="e4" from="n5" to="n6" priority="-1" type="urban">
        <lane id="e4_0" index="0" speed="13.89" length="85.60" shape="110.40,95.20 196.00,95.20"/>
        <lane id="e4_1" index="1" speed="13.89" length="85.60" shape="110.40,98.40 196.00,98.40"/>
    </edge>
    <edge id="e5" from="n7" to="n8" priority="-1" type="residential">
        <lane id="e5_0" index="0" speed="8.33" length="82.40" shape="13.60,198.40 96.00,198.40"/>
    </edge>
    <edge id="e6" from="n8" to="n9" priority="-1" type="residential">
        <lane id="e6_0" index="0" speed="8.33" length="88.10" shape="110.40,198.40 198.50,198.40"/>
    </edge>
    <edge id="e7" from="n1" to="n4" priority="-1" type="highway">
        <lane id="e7_0" index="0" speed="27.78" length="88.10" shape="8.00,1.50 8.00,89.60"/>
        <lane id="e7_1" index="1" speed="27.78" length="88.10" shape="4.80,1.50 4.80,89.60"/>
        <lane id="e7_2" index="2" speed="27.78" length="88.10" shape="1.60,1.50 1.60,89.60"/>
    </edge>
    <edge id="e8" from="n4" to="n7" priority="-1" type="highway">
        <lane id="e8_0" index="0" speed="27.78" length="88.80" shape="8.00,104.00 8.00,192.80"/>
        <lane id="e8_1" index="1" speed="27.78" length="88.80" shape="4.80,104.00 4.80,192.80"/>
        <lane id="e8_2" index="2" speed="27.78" length="88.80" shape="1.60,104.00 1.60,192.80"/>
    </edge>
    <edge id="e9" from="n2" to="n5" priority="-1" type="urban">
        <lane id="e9_0" index="0" speed="13.89" length="85.60" shape="104.80,4.00 104.80,89.60"/>
        <lane id="e9_1" index="1" speed="13.89" length="85.60" shape="101.60,4.00 101.60,89.60"/>
    </edge>

    <tlLogic id="n5" type="static" programID="0" offset="0">
        <phase duration="42" state="GGGrrr"/>
        <phase duration="3"  state="yyyrrr"/>
        <phase duration="42" state="rrrGGG"/>
        <phase duration="3"  state="rrryyy"/>
    </tlLogic>

    <junction id="n1" type="dead_end" x="0.00" y="0.00" incLanes="" intLanes="" shape="0.00,1.50 9.60,1.50 9.77,0.67 9.97,0.38 10.27,0.17 10.64,0.04 11.10,0.00 11.10,-6.40 7.71,-6.18 4.93,-5.52 2.77,-4.43 1.23,-2.89 0.31,-0.91"/>
    <junction id="n2" type="priority" x="100.00" y="0.00" incLanes="e1_0 e1_1" intLanes=":n2_0_0 :n2_0_1 :n2_2_0 :n2_2_1" shape="100.00,4.00 106.40,4.00 106.84,1.78 107.40,1.00 108.18,0.44 109.18,0.11 110.40,0.00 110.40,-6.40 96.00,-6.40 96.00,0.00 98.22,0.44 99.00,1.00 99.56,1.78 99.89,2.78">
        <request index="0" response="0000" foes="0000" cont="0"/>
        <request index="1" response="0000" foes="0000" cont="0"/>
        <request index="2" response="0000" foes="0000" cont="0"/>
        <request index="3" response="0000" foes="0000" cont="0"/>
    </junction>
    <junction id="n3" type="priority" x="200.00" y="0.00" incLanes="e2_0 e2_1" intLanes=":n3_0_0" shape="200.00,4.00 203.20,4.00 203.00,0.82 202.40,-1.78 201.40,-3.80 200.00,-5.24 198.20,-6.11 196.00,-6.40 196.00,0.00 198.22,0.44 199.00,1.00 199.56,1.78 199.89,2.78">
        <request index="0" response="0" foes="0" cont="0"/>
    </junction>
    <junction id="n4" type="priority" x="0.00" y="100.00" incLanes="e7_0 e7_1 e7_2" intLanes=":n4_0_0 :n4_0_1 :n4_2_0 :n4_2_1 :n4_2_2" shape="0.00,104.00 9.60,104.00 10.04,101.78 10.60,101.00 11.38,100.44 12.38,100.11 13.60,100.00 13.60,93.60 11.38,93.16 10.60,92.60 10.04,91.82 9.71,90.82 9.60,89.60 0.00,89.60">
        <request index="0" response="00000" foes="00000" cont="0"/>
        <request index="1" response="00000" foes="00000" cont="0"/>
        <request index="2" response="00000" foes="00000" cont="0"/>
        <request index="3" response="00000" foes="00000" cont="0"/>
        <request index="4" response="00000" foes="00000" cont="0"/>
    </junction>
    <junction id="n5" type="traffic_light" x="100.00" y="100.00" incLanes="e9_0 e9_1 e3_0 e3_1" intLanes=":n5_0_0 :n5_1_0 :n5_1_1 :n5_3_0 :n5_3_1 :n5_5_0" shape="100.00,104.00 106.40,104.00 106.84,101.78 107.40,101.00 108.18,100.44 109.18,100.11 110.40,100.00 110.40,93.60 108.18,93.16 107.40,92.60 106.84,91.82 106.51,90.82 106.40,89.60 100.00,89.60 99.56,91.82 99.00,92.60 98.22,93.16 97.22,93.49 96.00,93.60 96.00,100.00 98.22,100.44 99.00,101.00 99.56,101.78 99.89,102.78">
        <request index="0" response="000000" foes="011000" cont="0"/>
        <request index="1" response="000000" foes="111000" cont="0"/>
        <request index="2" response="000000" foes="111000" cont="0"/>
        <request index="3" response="000111" foes="000111" cont="0"/>
        <request index="4" response="000111" foes="000111" cont="0"/>
        <request index="5" response="000110" foes="000110" cont="0"/>
    </junction>
    <junction id="n6" type="priority" x="200.00" y="100.00" incLanes="e11_0 e4_0 e4_1" intLanes=":n6_0_0 :n6_1_0" shape="200.00,104.00 203.20,104.00 203.20,89.60 200.00,89.60 199.56,91.82 199.00,92.60 198.22,93.16 197.22,93.49 196.00,93.60 196.00,100.00 198.22,100.44 199.00,101.00 199.56,101.78 199.89,102.78">
        <request index="0" response="10" foes="10" cont="0"/>
        <request index="1" response="00" foes="01" cont="0"/>
    </junction>
    <junction id="n7" type="priority" x="0.00" y="200.00" incLanes="e8_0 e8_1 e8_2" intLanes=":n7_0_0" shape="13.60,200.00 13.60,196.80 11.38,196.36 10.60,195.80 10.04,195.02 9.71,194.02 9.60,192.80 0.00,192.80 0.38,195.00 1.51,196.80 3.40,198.20 6.04,199.20 9.44,199.80">
        <request index="0" response="0" foes="0" cont="0"/>
    </junction>
    <junction id="n8" type="priority" x="100.00" y="200.00" incLanes="e10_0 e10_1 e5_0" intLanes=":n8_0_0 :n8_1_0" shape="110.40,200.00 110.40,196.80 108.18,196.36 107.40,195.80 106.84,195.02 106.51,194.02 106.40,192.80 100.00,192.80 99.56,195.02 99.00,195.80 98.22,196.36 97.22,196.69 96.00,196.80 96.00,200.00">
        <request index="0" response="00" foes="10" cont="0"/>
        <request index="1" response="01" foes="01" cont="0"/>
    </junction>
    <junction id="n9" type="dead_end" x="200.00" y="200.00" incLanes="e12_0 e6_0" intLanes="" shape="203.20,195.30 200.00,195.30 199.83,196.13 199.62,196.43 199.33,196.63 198.96,196.76 198.50,196.80 198.50,200.00 201.11,199.48 202.02,198.82 202.68,197.91 203.07,196.74"/>

    <connection from="e1" to="e2" fromLane="0" toLane="0" via=":n2_0_0" dir="s" state="M"/>
    <connection from="e1" to="e2" fromLane="1" toLane="1" via=":n2_0_1" dir="s" state="M"/>
    <connection from="e1" to="e9" fromLane="1" toLane="0" via=":n2_2_0" dir="l" state="M"/>
    <connection from="e1" to="e9" fromLane="1" toLane="1" via=":n2_2_1" dir="l" state="M"/>
    <connection from="e10" to="e6" fromLane="0" toLane="0" via=":n8_0_0" dir="r" state="M"/>
    <connection from="e11" to="e12" fromLane="0" toLane="0" via=":n6_0_0" dir="s" state="m"/>
    <connection from="e2" to="e11" fromLane="1" toLane="0" via=":n3_0_0" dir="l" state="M"/>
    <connection from="e3" to="e4" fromLane="0" toLane="0" via=":n5_3_0" tl="n5" linkIndex="3" dir="s" state="o"/>
    <connection from="e3" to="e4" fromLane="1" toLane="1" via=":n5_3_1" tl="n5" linkIndex="4" dir="s" state="o"/>
    <connection from="e3" to="e10" fromLane="1" toLane="1" via=":n5_5_0" tl="n5" linkIndex="5" dir="l" state="o"/>
    <connection from="e4" to="e12" fromLane="0" toLane="0" via=":n6_1_0" dir="l" state="M"/>
    <connection from="e5" to="e6" fromLane="0" toLane="0" via=":n8_1_0" dir="s" state="m"/>
    <connection from="e7" to="e3" fromLane="0" toLane="0" via=":n4_0_0" dir="r" state="M"/>
    <connection from="e7" to="e3" fromLane="0" toLane="1" via=":n4_0_1" dir="r" state="M"/>
    <connection from="e7" to="e8" fromLane="0" toLane="0" via=":n4_2_0" dir="s" state="M"/>
    <connection from="e7" to="e8" fromLane="1" toLane="1" via=":n4_2_1" dir="s" state="M"/>
    <connection from="e7" to="e8" fromLane="2" toLane="2" via=":n4_2_2" dir="s" state="M"/>
    <connection from="e8" to="e5" fromLane="2" toLane="0" via=":n7_0_0" dir="r" state="M"/>
    <connection from="e9" to="e4" fromLane="0" toLane="0" via=":n5_0_0" tl="n5" linkIndex="0" dir="r" state="O"/>
    <connection from="e9" to="e10" fromLane="0" toLane="0" via=":n5_1_0" tl="n5" linkIndex="1" dir="s" state="O"/>
    <connection from="e9" to="e10" fromLane="1" toLane="1" via=":n5_1_1" tl="n5" linkIndex="2" dir="s" state="O"/>

    <connection from=":n2_0" to="e2" fromLane="0" toLane="0" dir="s" state="M"/>
    <connection from=":n2_0" to="e2" fromLane="1" toLane="1" dir="s" state="M"/>
    <connection from=":n2_2" to="e9" fromLane="0" toLane="0" dir="l" state="M"/>
    <connection from=":n2_2" to="e9" fromLane="1" toLane="1" dir="l" state="M"/>
    <connection from=":n3_0" to="e11" fromLane="0" toLane="0" dir="l" state="M"/>
    <connection from=":n4_0" to="e3" fromLane="0" toLane="0" dir="r" state="M"/>
    <connection from=":n4_0" to="e3" fromLane="1" toLane="1" dir="r" state="M"/>
    <connection from=":n4_2" to="e8" fromLane="0" toLane="0" dir="s" state="M"/>
    <connection from=":n4_2" to="e8" fromLane="1" toLane="1" dir="s" state="M"/>
    <connection from=":n4_2" to="e8" fromLane="2" toLane="2" dir="s" state="M"/>
    <connection from=":n5_0" to="e4" fromLane="0" toLane="0" dir="r" state="M"/>
    <connection from=":n5_1" to="e10" fromLane="0" toLane="0" dir="s" state="M"/>
    <connection from=":n5_1" to="e10" fromLane="1" toLane="1" dir="s" state="M"/>
    <connection from=":n5_3" to="e4" fromLane="0" toLane="0" dir="s" state="M"/>
    <connection from=":n5_3" to="e4" fromLane="1" toLane="1" dir="s" state="M"/>
    <connection from=":n5_5" to="e10" fromLane="0" toLane="1" dir="l" state="M"/>
    <connection from=":n6_0" to="e12" fromLane="0" toLane="0" dir="s" state="M"/>
    <connection from=":n6_1" to="e12" fromLane="0" toLane="0" dir="l" state="M"/>
    <connection from=":n7_0" to="e5" fromLane="0" toLane="0" dir="r" state="M"/>
    <connection from=":n8_0" to="e6" fromLane="0" toLane="0" dir="r" state="M"/>
    <connection from=":n8_1" to="e6" fromLane="0" toLane="0" dir="s" state="M"/>

</net>
