<?xml version="1.0" encoding="UTF-8"?>

<!-- generated on 2025-04-22 12:16:57.883993 by randomTrips.py UNKNOWN
<configuration>
    <net-file value="vuna.net.xml"/>
    <output-trip-file value="vuna.rou.xml"/>
    <route-file value="vuna.trips.xml"/>
    <prefix value="veh"/>
    <period value="5.0"/>
    <binomial value="2"/>
</configuration>
-->

<routes xmlns:xsi="http://www.w3.org/2001/XMLSchema-instance" xsi:noNamespaceSchemaLocation="http://sumo.dlr.de/xsd/routes_file.xsd">
    <trip id="veh0" depart="0.00" from="e11" to="e12"/>
    <trip id="veh1" depart="2.00" from="e3" to="e10"/>
    <trip id="veh2" depart="4.00" from="e10" to="e5"/>
    <trip id="veh3" depart="6.00" from="e8" to="e5"/>
    <trip id="veh4" depart="9.00" from="e1" to="e8"/>
    <trip id="veh5" depart="15.00" from="e11" to="e12"/>
    <trip id="veh6" depart="16.00" from="e11" to="e11"/>
    <trip id="veh7" depart="26.00" from="e2" to="e12"/>
    <trip id="veh8" depart="36.00" from="e1" to="e11"/>
    <trip id="veh9" depart="38.00" from="e2" to="e9"/>
    <trip id="veh10" depart="40.00" from="e7" to="e5"/>
    <trip id="veh11" depart="51.00" from="e2" to="e10"/>
    <trip id="veh12" depart="53.00" from="e8" to="e9"/>
    <trip id="veh13" depart="54.00" from="e3" to="e10"/>
    <trip id="veh14" depart="66.00" from="e5" to="e12"/>
    <trip id="veh15" depart="67.00" from="e11" to="e5"/>
    <trip id="veh16" depart="72.00" from="e3" to="e3"/>
    <trip id="veh17" depart="74.00" from="e3" to="e2"/>
    <trip id="veh18" depart="80.00" from="e9" to="e8"/>
    <trip id="veh19" depart="84.00" from="e2" to="e9"/>
    <trip id="veh20" depart="92.00" from="e4" to="e4"/>
    <trip id="veh21" depart="94.00" from="e10" to="e4"/>
    <trip id="veh22" depart="104.00" from="e3" to="e9"/>
    <trip id="veh23" depart="105.00" from="e11" to="e12"/>
    <trip id="veh24" depart="110.00" from="e8" to="e12"/>
    <trip id="veh25" depart="118.00" from="e3" to="e12"/>
    <trip id="veh26" depart="119.00" from="e7" to="e5"/>
    <trip id="veh27" depart="121.00" from="e1" to="e8"/>
    <trip id="veh28" depart="134.00" from="e7" to="e2"/>
    <trip id="veh29" depart="142.00" from="e10" to="e2"/>
    <trip id="veh30" depart="154.00" from="e9" to="e4"/>
    <trip id="veh31" depart="156.00" from="e5" to="e2"/>
    <trip id="veh32" depart="165.00" from="e11" to="e3"/>
    <trip id="veh33" depart="170.00" from="e4" to="e5"/>
    <trip id="veh34" depart="173.00" from="e11" to="e3"/>
    <trip id="veh35" depart="174.00" from="e3" to="e5"/>
    <trip id="veh36" depart="177.00" from="e7" to="e6"/>
    <trip id="veh37" depart="180.00" from="e11" to="e8"/>
    <trip id="veh38" depart="192.00" from="e11" to="e12"/>
    <trip id="veh39" depart="195.00" from="e3" to="e4"/>
    <trip id="veh40" depart="200.00" from="e2" to="e6"/>
    <trip id="veh41" depart="205.00" from="e2" to="e5"/>
    <trip id="veh42" depart="208.00" from="e2" to="e4"/>
    <trip id="veh43" depart="209.00" from="e5" to="e11"/>
    <trip id="veh44" depart="210.00" from="e2" to="e12"/>
    <trip id="veh45" depart="213.00" from="e1" to="e4"/>
    <trip id="veh46" depart="218.00" from="e10" to="e11"/>
    <trip id="veh47" depart="224.00" from="e2" to="e5"/>
    <trip id="veh48" depart="226.00" from="e5" to="e5"/>
    <trip id="veh49" depart="242.00" from="e8" to="e12"/>
    <trip id="veh50" depart="244.00" from="e8" to="e11"/>
    <trip id="veh51" depart="248.00" from="e9" to="e10"/>
    <trip id="veh52" depart="252.00" from="e11" to="e5"/>
    <trip id="veh53" depart="265.00" from="e4" to="e12"/>
    <trip id="veh54" depart="271.00" from="e9" to="e3"/>
    <trip id="veh55" depart="273.00" from="e5" to="e10"/>
    <trip id="veh56" depart="285.00" from="e1" to="e3"/>
    <trip id="veh57" depart="294.00" from="e10" to="e2"/>
    <trip id="veh58" depart="299.00" from="e1" to="e3"/>
    <trip id="veh59" depart="301.00" from="e9" to="e8"/>
    <trip id="veh60" depart="304.00" from="e7" to="e3"/>
    <trip id="veh61" depart="307.00" from="e2" to="e2"/>
    <trip id="veh62" depart="325.00" from="e9" to="e9"/>
    <trip id="veh63" depart="345.00" from="e7" to="e6"/>
    <trip id="veh64" depart="349.00" from="e4" to="e4"/>
    <trip id="veh65" depart="360.00" from="e1" to="e5"/>
    <trip id="veh66" depart="363.00" from="e5" to="e8"/>
    <trip id="veh67" depart="365.00" from="e7" to="e12"/>
    <trip id="veh68" depart="368.00" from="e8" to="e5"/>
    <trip id="veh69" depart="372.00" from="e8" to="e9"/>
    <trip id="veh70" depart="384.00" from="e5" to="e3"/>
    <trip id="veh71" depart="393.00" from="e11" to="e6"/>
    <trip id="veh72" depart="406.00" from="e4" to="e3"/>
    <trip id="veh73" depart="410.00" from="e8" to="e4"/>
    <trip id="veh74" depart="411.00" from="e8" to="e9"/>
    <trip id="veh75" depart="415.00" from="e8" to="e11"/>
    <trip id="veh76" depart="419.00" from="e3" to="e3"/>
    <trip id="veh77" depart="420.00" from="e2" to="e3"/>
    <trip id="veh78" depart="422.00" from="e5" to="e4"/>
    <trip id="veh79" depart="427.00" from="e7" to="e12"/>
    <trip id="veh80" depart="429.00" from="e7" to="e12"/>
    <trip id="veh81" depart="432.00" from="e8" to="e11"/>
    <trip id="veh82" depart="434.00" from="e1" to="e6"/>
    <trip id="veh83" depart="436.00" from="e7" to="e4"/>
    <trip id="veh84" depart="440.00" from="e7" to="e8"/>
    <trip id="veh85" depart="442.00" from="e3" to="e3"/>
    <trip id="veh86" depart="444.00" from="e1" to="e5"/>
    <trip id="veh87" depart="445.00" from="e11" to="e5"/>
    <trip id="veh88" depart="448.00" from="e7" to="e8"/>
    <trip id="veh89" depart="453.00" from="e3" to="e5"/>
    <trip id="veh90" depart="455.00" from="e8" to="e10"/>
    <trip id="veh91" depart="456.00" from="e7" to="e8"/>
    <trip id="veh92" depart="470.00" from="e9" to="e8"/>
    <trip id="veh93" depart="473.00" from="e8" to="e4"/>
    <trip id="veh94" depart="475.00" from="e7" to="e12"/>
    <trip id="veh95" depart="479.00" from="e1" to="e11"/>
    <trip id="veh96" depart="486.00" from="e2" to="e4"/>
    <trip id="veh97" depart="487.00" from="e2" to="e12"/>
    <trip id="veh98" depart="489.00" from="e7" to="e11"/>
    <trip id="veh99" depart="492.00" from="e8" to="e10"/>
    <trip id="veh100" depart="492.00" from="e9" to="e8"/>
    <trip id="veh101" depart="495.00" from="e2" to="e8"/>
    <trip id="veh102" depart="497.00" from="e8" to="e12"/>
    <trip id="veh103" depart="515.00" from="e3" to="e2"/>
    <trip id="veh104" depart="516.00" from="e4" to="e2"/>
    <trip id="veh105" depart="517.00" from="e8" to="e10"/>
    <trip id="veh106" depart="524.00" from="e10" to="e8"/>
    <trip id="veh107" depart="533.00" from="e1" to="e5"/>
    <trip id="veh108" depart="550.00" from="e8" to="e11"/>
    <trip id="veh109" depart="552.00" from="e2" to="e6"/>
    <trip id="veh110" depart="576.00" from="e1" to="e4"/>
    <trip id="veh111" depart="578.00" from="e9" to="e8"/>
    <trip id="veh112" depart="583.00" from="e1" to="e12"/>
    <trip id="veh113" depart="587.00" from="e3" to="e6"/>
    <trip id="veh114" depart="590.00" from="e4" to="e12"/>
    <trip id="veh115" depart="593.00" from="e9" to="e10"/>
    <trip id="veh116" depart="598.00" from="e7" to="e2"/>
    <trip id="veh117" depart="601.00" from="e4" to="e8"/>
    <trip id="veh118" depart="605.00" from="e7" to="e3"/>
    <trip id="veh119" depart="606.00" from="e10" to="e10"/>
    <trip id="veh120" depart="618.00" from="e5" to="e8"/>
    <trip id="veh121" depart="620.00" from="e5" to="e2"/>
    <trip id="veh122" depart="622.00" from="e8" to="e2"/>
    <trip id="veh123" depart="625.00" from="e5" to="e2"/>
    <trip id="veh124" depart="628.00" from="e1" to="e6"/>
    <trip id="veh125" depart="644.00" from="e5" to="e8"/>
    <trip id="veh126" depart="645.00" from="e4" to="e8"/>
    <trip id="veh127" depart="651.00" from="e4" to="e2"/>
    <trip id="veh128" depart="653.00" from="e2" to="e9"/>
    <trip id="veh129" depart="655.00" from="e9" to="e5"/>
    <trip id="veh130" depart="661.00" from="e10" to="e11"/>
    <trip id="veh131" depart="673.00" from="e1" to="e5"/>
    <trip id="veh132" depart="680.00" from="e1" to="e3"/>
    <trip id="veh133" depart="688.00" from="e11" to="e2"/>
    <trip id="veh134" depart="694.00" from="e9" to="e4"/>
    <trip id="veh135" depart="696.00" from="e3" to="e8"/>
    <trip id="veh136" depart="703.00" from="e4" to="e6"/>
    <trip id="veh137" depart="710.00" from="e10" to="e2"/>
    <trip id="veh138" depart="722.00" from="e3" to="e9"/>
    <trip id="veh139" depart="728.00" from="e9" to="e11"/>
    <trip id="veh140" depart="729.00" from="e2" to="e11"/>
    <trip id="veh141" depart="732.00" from="e10" to="e12"/>
    <trip id="veh142" depart="759.00" from="e3" to="e6"/>
    <trip id="veh143" depart="760.00" from="e4" to="e9"/>
    <trip id="veh144" depart="765.00" from="e4" to="e4"/>
    <trip id="veh145" depart="773.00" from="e4" to="e11"/>
    <trip id="veh146" depart="785.00" from="e5" to="e11"/>
    <trip id="veh147" depart="790.00" from="e5" to="e5"/>
    <trip id="veh148" depart="790.00" from="e10" to="e2"/>
    <trip id="veh149" depart="802.00" from="e3" to="e6"/>
    <trip id="veh150" depart="803.00" from="e4" to="e10"/>
    <trip id="veh151" depart="808.00" from="e4" to="e8"/>
    <trip id="veh152" depart="810.00" from="e3" to="e8"/>
    <trip id="veh153" depart="813.00" from="e2" to="e10"/>
    <trip id="veh154" depart="814.00" from="e9" to="e10"/>
    <trip id="veh155" depart="825.00" from="e1" to="e12"/>
    <trip id="veh156" depart="833.00" from="e11" to="e11"/>
    <trip id="veh157" depart="833.00" from="e4" to="e6"/>
    <trip id="veh158" depart="834.00" from="e7" to="e3"/>
    <trip id="veh159" depart="836.00" from="e4" to="e12"/>
    <trip id="veh160" depart="842.00" from="e9" to="e8"/>
    <trip id="veh161" depart="856.00" from="e7" to="e11"/>
    <trip id="veh162" depart="863.00" from="e9" to="e9"/>
    <trip id="veh163" depart="871.00" from="e9" to="e3"/>
    <trip id="veh164" depart="887.00" from="e1" to="e8"/>
    <trip id="veh165" depart="891.00" from="e4" to="e2"/>
    <trip id="veh166" depart="894.00" from="e4" to="e10"/>
    <trip id="veh167" depart="896.00" from="e8" to="e5"/>
    <trip id="veh168" depart="898.00" from="e10" to="e11"/>
    <trip id="veh169" depart="905.00" from="e2" to="e4"/>
    <trip id="veh170" depart="906.00" from="e1" to="e11"/>
    <trip id="veh171" depart="909.00" from="e4" to="e10"/>
    <trip id="veh172" depart="911.00" from="e1" to="e9"/>
    <trip id="veh173" depart="913.00" from="e9" to="e2"/>
    <trip id="veh174" depart="916.00" from="e10" to="e12"/>
    <trip id="veh175" depart="921.00" from="e3" to="e8"/>
    <trip id="veh176" depart="924.00" from="e11" to="e9"/>
    <trip id="veh177" depart="928.00" from="e5" to="e6"/>
    <trip id="veh178" depart="929.00" from="e10" to="e6"/>
    <trip id="veh179" depart="931.00" from="e2" to="e2"/>
    <trip id="veh180" depart="935.00" from="e2" to="e10"/>
    <trip id="veh181" depart="938.00" from="e9" to="e9"/>
    <trip id="veh182" depart="942.00" from="e3" to="e3"/>
    <trip id="veh183" depart="943.00" from="e11" to="e12"/>
    <trip id="veh184" depart="968.00" from="e9" to="e3"/>
    <trip id="veh185" depart="974.00" from="e7" to="e5"/>
    <trip id="veh186" depart="975.00" from="e9" to="e5"/>
    <trip id="veh187" depart="978.00" from="e11" to="e4"/>
    <trip id="veh188" depart="983.00" from="e10" to="e3"/>
    <trip id="veh189" depart="998.00" from="e5" to="e11"/>
    <trip id="veh190" depart="1002.00" from="e10" to="e8"/>
    <trip id="veh191" depart="1011.00" from="e10" to="e11"/>
    <trip id="veh192" depart="1020.00" from="e2" to="e10"/>
    <trip id="veh193" depart="1025.00" from="e1" to="e6"/>
    <trip id="veh194" depart="1032.00" from="e7" to="e4"/>
    <trip id="veh195" depart="1044.00" from="e2" to="e12"/>
    <trip id="veh196" depart="1048.00" from="e9" to="e6"/>
    <trip id="veh197" depart="1057.00" from="e4" to="e12"/>
    <trip id="veh198" depart="1060.00" from="e7" to="e6"/>
    <trip id="veh199" depart="1062.00" from="e4" to="e12"/>
    <trip id="veh200" depart="1068.00" from="e1" to="e6"/>
    <trip id="veh201" depart="1070.00" from="e9" to="e12"/>
    <trip id="veh202" depart="1079.00" from="e3" to="e11"/>
    <trip id="veh203" depart="1081.00" from="e5" to="e8"/>
    <trip id="veh204" depart="1083.00" from="e2" to="e6"/>
    <trip id="veh205" depart="1088.00" from="e5" to="e3"/>
    <trip id="veh206" depart="1092.00" from="e10" to="e6"/>
    <trip id="veh207" depart="1095.00" from="e4" to="e5"/>
    <trip id="veh208" depart="1101.00" from="e8" to="e9"/>
    <trip id="veh209" depart="1109.00" from="e1" to="e12"/>
    <trip id="veh210" depart="1110.00" from="e1" to="e6"/>
    <trip id="veh211" depart="1113.00" from="e4" to="e5"/>
    <trip id="veh212" depart="1118.00" from="e5" to="e6"/>
    <trip id="veh213" depart="1119.00" from="e1" to="e3"/>
    <trip id="veh214" depart="1129.00" from="e8" to="e12"/>
    <trip id="veh215" depart="1130.00" from="e7" to="e4"/>
    <trip id="veh216" depart="1130.00" from="e3" to="e2"/>
    <trip id="veh217" depart="1135.00" from="e8" to="e12"/>
    <trip id="veh218" depart="1142.00" from="e2" to="e4"/>
    <trip id="veh219" depart="1145.00" from="e3" to="e12"/>
    <trip id="veh220" depart="1147.00" from="e11" to="e4"/>
    <trip id="veh221" depart="1153.00" from="e3" to="e12"/>
    <trip id="veh222" depart="1155.00" from="e5" to="e8"/>
    <trip id="veh223" depart="1158.00" from="e9" to="e6"/>
    <trip id="veh224" depart="1159.00" from="e9" to="e8"/>
    <trip id="veh225" depart="1161.00" from="e1" to="e11"/>
    <trip id="veh226" depart="1162.00" from="e4" to="e3"/>
    <trip id="veh227" depart="1167.00" from="e11" to="e6"/>
    <trip id="veh228" depart="1175.00" from="e8" to="e2"/>
    <trip id="veh229" depart="1176.00" from="e11" to="e2"/>
    <trip id="veh230" depart="1178.00" from="e3" to="e3"/>
    <trip id="veh231" depart="1181.00" from="e8" to="e9"/>
    <trip id="veh232" depart="1186.00" from="e1" to="e9"/>
    <trip id="veh233" depart="1189.00" from="e3" to="e11"/>
    <trip id="veh234" depart="1191.00" from="e5" to="e11"/>
    <trip id="veh235" depart="1193.00" from="e5" to="e12"/>
    <trip id="veh236" depart="1195.00" from="e11" to="e11"/>
    <trip id="veh237" depart="1205.00" from="e9" to="e4"/>
    <trip id="veh238" depart="1210.00" from="e9" to="e12"/>
    <trip id="veh239" depart="1215.00" from="e7" to="e9"/>
    <trip id="veh240" depart="1220.00" from="e11" to="e12"/>
    <trip id="veh241" depart="1221.00" from="e9" to="e12"/>
    <trip id="veh242" depart="1224.00" from="e4" to="e9"/>
    <trip id="veh243" depart="1240.00" from="e5" to="e9"/>
    <trip id="veh244" depart="1246.00" from="e7" to="e5"/>
    <trip id="veh245" depart="1248.00" from="e11" to="e11"/>
    <trip id="veh246" depart="1249.00" from="e2" to="e6"/>
    <trip id="veh247" depart="1255.00" from="e8" to="e12"/>
    <trip id="veh248" depart="1256.00" from="e10" to="e2"/>
    <trip id="veh249" depart="1258.00" from="e4" to="e5"/>
    <trip id="veh250" depart="1259.00" from="e9" to="e11"/>
    <trip id="veh251" depart="1265.00" from="e4" to="e8"/>
    <trip id="veh252" depart="1269.00" from="e10" to="e12"/>
    <trip id="veh253" depart="1270.00" from="e8" to="e2"/>
    <trip id="veh254" depart="1272.00" from="e4" to="e11"/>
    <trip id="veh255" depart="1276.00" from="e7" to="e5"/>
    <trip id="veh256" depart="1276.00" from="e2" to="e4"/>
    <trip id="veh257" depart="1282.00" from="e9" to="e6"/>
    <trip id="veh258" depart="1293.00" from="e2" to="e2"/>
    <trip id="veh259" depart="1305.00" from="e11" to="e11"/>
    <trip id="veh260" depart="1307.00" from="e8" to="e2"/>
    <trip id="veh261" depart="1309.00" from="e8" to="e2"/>
    <trip id="veh262" depart="1311.00" from="e8" to="e11"/>
    <trip id="veh263" depart="1322.00" from="e10" to="e8"/>
    <trip id="veh264" depart="1327.00" from="e2" to="e4"/>
    <trip id="veh265" depart="1337.00" from="e7" to="e6"/>
    <trip id="veh266" depart="1337.00" from="e9" to="e5"/>
    <trip id="veh267" depart="1338.00" from="e11" to="e8"/>
    <trip id="veh268" depart="1349.00" from="e9" to="e5"/>
    <trip id="veh269" depart="1359.00" from="e7" to="e4"/>
    <trip id="veh270" depart="1365.00" from="e10" to="e12"/>
    <trip id="veh271" depart="1368.00" from="e2" to="e6"/>
    <trip id="veh272" depart="1374.00" from="e8" to="e4"/>
    <trip id="veh273" depart="1376.00" from="e8" to="e11"/>
    <trip id="veh274" depart="1382.00" from="e11" to="e6"/>
    <trip id="veh275" depart="1385.00" from="e5" to="e5"/>
    <trip id="veh276" depart="1387.00" from="e10" to="e2"/>
    <trip id="veh277" depart="1387.00" from="e2" to="e8"/>
    <trip id="veh278" depart="1404.00" from="e8" to="e12"/>
    <trip id="veh279" depart="1405.00" from="e9" to="e5"/>
    <trip id="veh280" depart="1406.00" from="e5" to="e3"/>
    <trip id="veh281" depart="1419.00" from="e3" to="e12"/>
    <trip id="veh282" depart="1421.00" from="e5" to="e9"/>
    <trip id="veh283" depart="1423.00" from="e4" to="e6"/>
    <trip id="veh284" depart="1426.00" from="e10" to="e10"/>
    <trip id="veh285" depart="1429.00" from="e7" to="e10"/>
    <trip id="veh286" depart="1433.00" from="e8" to="e11"/>
    <trip id="veh287" depart="1438.00" from="e9" to="e11"/>
    <trip id="veh288" depart="1442.00" from="e5" to="e8"/>
    <trip id="veh289" depart="1445.00" from="e11" to="e2"/>
    <trip id="veh290" depart="1451.00" from="e5" to="e12"/>
    <trip id="veh291" depart="1454.00" from="e5" to="e11"/>
    <trip id="veh292" depart="1456.00" from="e3" to="e12"/>
    <trip id="veh293" depart="1457.00" from="e11" to="e5"/>
    <trip id="veh294" depart="1464.00" from="e1" to="e5"/>
    <trip id="veh295" depart="1468.00" from="e11" to="e3"/>
    <trip id="veh296" depart="1476.00" from="e10" to="e11"/>
    <trip id="veh297" depart="1487.00" from="e9" to="e8"/>
    <trip id="veh298" depart="1514.00" from="e10" to="e5"/>
    <trip id="veh299" depart="1519.00" from="e8" to="e11"/>
    <trip id="veh300" depart="1527.00" from="e11" to="e5"/>
    <trip id="veh301" depart="1542.00" from="e9" to="e5"/>
    <trip id="veh302" depart="1546.00" from="e4" to="e3"/>
    <trip id="veh303" depart="1547.00" from="e11" to="e12"/>
    <trip id="veh304" depart="1552.00" from="e5" to="e3"/>
    <trip id="veh305" depart="1560.00" from="e8" to="e11"/>
    <trip id="veh306" depart="1563.00" from="e1" to="e5"/>
    <trip id="veh307" depart="1571.00" from="e1" to="e6"/>
    <trip id="veh308" depart="1575.00" from="e5" to="e4"/>
    <trip id="veh309" depart="1578.00" from="e9" to="e11"/>
    <trip id="veh310" depart="1579.00" from="e7" to="e3"/>
    <trip id="veh311" depart="1589.00" from="e4" to="e4"/>
    <trip id="veh312" depart="1600.00" from="e1" to="e6"/>
    <trip id="veh313" depart="1609.00" from="e11" to="e12"/>
    <trip id="veh314" depart="1618.00" from="e1" to="e10"/>
    <trip id="veh315" depart="1619.00" from="e4" to="e3"/>
    <trip id="veh316" depart="1636.00" from="e2" to="e10"/>
    <trip id="veh317" depart="1639.00" from="e9" to="e2"/>
    <trip id="veh318" depart="1651.00" from="e5" to="e12"/>
    <trip id="veh319" depart="1657.00" from="e1" to="e4"/>
    <trip id="veh320" depart="1659.00" from="e4" to="e10"/>
    <trip id="veh321" depart="1662.00" from="e7" to="e5"/>
    <trip id="veh322" depart="1663.00" from="e3" to="e9"/>
    <trip id="veh323" depart="1674.00" from="e3" to="e5"/>
    <trip id="veh324" depart="1674.00" from="e7" to="e4"/>
    <trip id="veh325" depart="1680.00" from="e4" to="e12"/>
    <trip id="veh326" depart="1684.00" from="e10" to="e3"/>
    <trip id="veh327" depart="1689.00" from="e5" to="e5"/>
    <trip id="veh328" depart="1707.00" from="e1" to="e11"/>
    <trip id="veh329" depart="1709.00" from="e11" to="e10"/>
    <trip id="veh330" depart="1709.00" from="e2" to="e9"/>
    <trip id="veh331" depart="1716.00" from="e4" to="e4"/>
    <trip id="veh332" depart="1717.00" from="e11" to="e10"/>
    <trip id="veh333" depart="1722.00" from="e1" to="e12"/>
    <trip id="veh334" depart="1728.00" from="e11" to="e9"/>
    <trip id="veh335" depart="1736.00" from="e10" to="e10"/>
    <trip id="veh336" depart="1740.00" from="e8" to="e12"/>
    <trip id="veh337" depart="1740.00" from="e5" to="e8"/>
    <trip id="veh338" depart="1741.00" from="e9" to="e3"/>
    <trip id="veh339" depart="1752.00" from="e3" to="e5"/>
    <trip id="veh340" depart="1758.00" from="e7" to="e3"/>
    <trip id="veh341" depart="1763.00" from="e11" to="e4"/>
    <trip id="veh342" depart="1772.00" from="e11" to="e12"/>
    <trip id="veh343" depart="1782.00" from="e8" to="e3"/>
    <trip id="veh344" depart="1786.00" from="e10" to="e8"/>
    <trip id="veh345" depart="1797.00" from="e10" to="e12"/>
    <trip id="veh346" depart="1803.00" from="e7" to="e5"/>
    <trip id="veh347" depart="1805.00" from="e10" to="e11"/>
    <trip id="veh348" depart="1805.00" from="e8" to="e4"/>
    <trip id="veh349" depart="1806.00" from="e2" to="e6"/>
    <trip id="veh350" depart="1806.00" from="e11" to="e11"/>
    <trip id="veh351" depart="1811.00" from="e5" to="e8"/>
    <trip id="veh352" depart="1823.00" from="e8" to="e8"/>
    <trip id="veh353" depart="1824.00" from="e9" to="e9"/>
    <trip id="veh354" depart="1825.00" from="e3" to="e12"/>
    <trip id="veh355" depart="1826.00" from="e2" to="e3"/>
    <trip id="veh356" depart="1839.00" from="e1" to="e4"/>
    <trip id="veh357" depart="1848.00" from="e7" to="e10"/>
    <trip id="veh358" depart="1854.00" from="e3" to="e6"/>
    <trip id="veh359" depart="1858.00" from="e9" to="e4"/>
    <trip id="veh360" depart="1865.00" from="e1" to="e6"/>
    <trip id="veh361" depart="1867.00" from="e10" to="e10"/>
    <trip id="veh362" depart="1870.00" from="e5" to="e6"/>
    <trip id="veh363" depart="1883.00" from="e10" to="e12"/>
    <trip id="veh364" depart="1884.00" from="e5" to="e2"/>
    <trip id="veh365" depart="1885.00" from="e8" to="e6"/>
    <trip id="veh366" depart="1892.00" from="e8" to="e11"/>
    <trip id="veh367" depart="1894.00" from="e4" to="e8"/>
    <trip id="veh368" depart="1898.00" from="e9" to="e12"/>
    <trip id="veh369" depart="1899.00" from="e8" to="e10"/>
    <trip id="veh370" depart="1903.00" from="e1" to="e2"/>
    <trip id="veh371" depart="1905.00" from="e7" to="e4"/>
    <trip id="veh372" depart="1928.00" from="e8" to="e5"/>
    <trip id="veh373" depart="1931.00" from="e2" to="e11"/>
    <trip id="veh374" depart="1934.00" from="e2" to="e9"/>
    <trip id="veh375" depart="1940.00" from="e1" to="e6"/>
    <trip id="veh376" depart="1945.00" from="e7" to="e2"/>
    <trip id="veh377" depart="1946.00" from="e4" to="e11"/>
    <trip id="veh378" depart="1947.00" from="e7" to="e2"/>
    <trip id="veh379" depart="1951.00" from="e4" to="e10"/>
    <trip id="veh380" depart="1952.00" from="e4" to="e6"/>
    <trip id="veh381" depart="1957.00" from="e7" to="e2"/>
    <trip id="veh382" depart="1958.00" from="e5" to="e3"/>
    <trip id="veh383" depart="1960.00" from="e2" to="e9"/>
    <trip id="veh384" depart="1963.00" from="e8" to="e11"/>
    <trip id="veh385" depart="1965.00" from="e9" to="e9"/>
    <trip id="veh386" depart="1967.00" from="e5" to="e11"/>
    <trip id="veh387" depart="1968.00" from="e11" to="e4"/>
    <trip id="veh388" depart="1972.00" from="e4" to="e5"/>
    <trip id="veh389" depart="1972.00" from="e10" to="e12"/>
    <trip id="veh390" depart="1974.00" from="e5" to="e10"/>
    <trip id="veh391" depart="1977.00" from="e8" to="e5"/>
    <trip id="veh392" depart="1979.00" from="e2" to="e8"/>
    <trip id="veh393" depart="1982.00" from="e11" to="e4"/>
    <trip id="veh394" depart="1989.00" from="e4" to="e12"/>
    <trip id="veh395" depart="1991.00" from="e2" to="e9"/>
    <trip id="veh396" depart="2022.00" from="e7" to="e10"/>
    <trip id="veh397" depart="2025.00" from="e9" to="e9"/>
    <trip id="veh398" depart="2028.00" from="e7" to="e2"/>
    <trip id="veh399" depart="2034.00" from="e9" to="e4"/>
    <trip id="veh400" depart="2037.00" from="e11" to="e2"/>
    <trip id="veh401" depart="2040.00" from="e4" to="e11"/>
    <trip id="veh402" depart="2066.00" from="e8" to="e12"/>
    <trip id="veh403" depart="2068.00" from="e5" to="e12"/>
    <trip id="veh404" depart="2071.00" from="e10" to="e5"/>
    <trip id="veh405" depart="2071.00" from="e8" to="e5"/>
    <trip id="veh406" depart="2073.00" from="e3" to="e11"/>
    <trip id="veh407" depart="2078.00" from="e11" to="e2"/>
    <trip id="veh408" depart="2079.00" from="e3" to="e4"/>
    <trip id="veh409" depart="2095.00" from="e1" to="e5"/>
    <trip id="veh410" depart="2100.00" from="e11" to="e12"/>
    <trip id="veh411" depart="2102.00" from="e5" to="e2"/>
    <trip id="veh412" depart="2104.00" from="e10" to="e2"/>
    <trip id="veh413" depart="2117.00" from="e9" to="e5"/>
    <trip id="veh414" depart="2121.00" from="e3" to="e3"/>
    <trip id="veh415" depart="2127.00" from="e3" to="e4"/>
    <trip id="veh416" depart="2135.00" from="e9" to="e5"/>
    <trip id="veh417" depart="2136.00" from="e3" to="e10"/>
    <trip id="veh418" depart="2143.00" from="e5" to="e4"/>
    <trip id="veh419" depart="2147.00" from="e5" to="e2"/>
    <trip id="veh420" depart="2150.00" from="e3" to="e11"/>
    <trip id="veh421" depart="2167.00" from="e3" to="e2"/>
    <trip id="veh422" depart="2181.00" from="e9" to="e4"/>
    <trip id="veh423" depart="2185.00" from="e10" to="e8"/>
    <trip id="veh424" depart="2187.00" from="e8" to="e8"/>
    <trip id="veh425" depart="2189.00" from="e10" to="e11"/>
    <trip id="veh426" depart="2196.00" from="e1" to="e9"/>
    <trip id="veh427" depart="2199.00" from="e7" to="e8"/>
    <trip id="veh428" depart="2209.00" from="e1" to="e6"/>
    <trip id="veh429" depart="2211.00" from="e5" to="e3"/>
    <trip id="veh430" depart="2227.00" from="e8" to="e10"/>
    <trip id="veh431" depart="2229.00" from="e5" to="e6"/>
    <trip id="veh432" depart="2230.00" from="e2" to="e6"/>
    <trip id="veh433" depart="2234.00" from="e9" to="e6"/>
    <trip id="veh434" depart="2236.00" from="e3" to="e11"/>
    <trip id="veh435" depart="2236.00" from="e9" to="e8"/>
    <trip id="veh436" depart="2238.00" from="e4" to="e8"/>
    <trip id="veh437" depart="2240.00" from="e10" to="e11"/>
    <trip id="veh438" depart="2246.00" from="e10" to="e9"/>
    <trip id="veh439" depart="2258.00" from="e9" to="e3"/>
    <trip id="veh440" depart="2260.00" from="e9" to="e5"/>
    <trip id="veh441" depart="2264.00" from="e5" to="e2"/>
    <trip id="veh442" depart="2270.00" from="e1" to="e11"/>
    <trip id="veh443" depart="2272.00" from="e1" to="e9"/>
    <trip id="veh444" depart="2285.00" from="e7" to="e2"/>
    <trip id="veh445" depart="2286.00" from="e9" to="e12"/>
    <trip id="veh446" depart="2293.00" from="e4" to="e12"/>
    <trip id="veh447" depart="2303.00" from="e9" to="e8"/>
    <trip id="veh448" depart="2307.00" from="e4" to="e9"/>
    <trip id="veh449" depart="2308.00" from="e3" to="e6"/>
    <trip id="veh450" depart="2309.00" from="e2" to="e11"/>
    <trip id="veh451" depart="2312.00" from="e5" to="e6"/>
    <trip id="veh452" depart="2315.00" from="e4" to="e2"/>
    <trip id="veh453" depart="2317.00" from="e1" to="e6"/>
    <trip id="veh454" depart="2318.00" from="e10" to="e8"/>
    <trip id="veh455" depart="2322.00" from="e10" to="e5"/>
    <trip id="veh456" depart="2323.00" from="e7" to="e11"/>
    <trip id="veh457" depart="2324.00" from="e2" to="e6"/>
    <trip id="veh458" depart="2339.00" from="e1" to="e8"/>
    <trip id="veh459" depart="2341.00" from="e3" to="e10"/>
    <trip id="veh460" depart="2342.00" from="e5" to="e8"/>
    <trip id="veh461" depart="2347.00" from="e10" to="e3"/>
    <trip id="veh462" depart="2350.00" from="e11" to="e11"/>
    <trip id="veh463" depart="2351.00" from="e2" to="e6"/>
    <trip id="veh464" depart="2357.00" from="e5" to="e12"/>
    <trip id="veh465" depart="2360.00" from="e7" to="e9"/>
    <trip id="veh466" depart="2367.00" from="e7" to="e8"/>
    <trip id="veh467" depart="2375.00" from="e10" to="e8"/>
    <trip id="veh468" depart="2381.00" from="e8" to="e3"/>
    <trip id="veh469" depart="2388.00" from="e9" to="e10"/>
    <trip id="veh470" depart="2390.00" from="e4" to="e3"/>
    <trip id="veh471" depart="2393.00" from="e7" to="e9"/>
    <trip id="veh472" depart="2395.00" from="e3" to="e2"/>
    <trip id="veh473" depart="2397.00" from="e3" to="e6"/>
    <trip id="veh474" depart="2401.00" from="e8" to="e2"/>
    <trip id="veh475" depart="2401.00" from="e3" to="e12"/>
    <trip id="veh476" depart="2404.00" from="e8" to="e6"/>
    <trip id="veh477" depart="2404.00" from="e9" to="e5"/>
    <trip id="veh478" depart="2408.00" from="e7" to="e12"/>
    <trip id="veh479" depart="2416.00" from="e2" to="e3"/>
    <trip id="veh480" depart="2422.00" from="e8" to="e3"/>
    <trip id="veh481" depart="2422.00" from="e8" to="e12"/>
    <trip id="veh482" depart="2431.00" from="e8" to="e12"/>
    <trip id="veh483" depart="2440.00" from="e2" to="e3"/>
    <trip id="veh484" depart="2446.00" from="e2" to="e11"/>
    <trip id="veh485" depart="2448.00" from="e2" to="e2"/>
    <trip id="veh486" depart="2453.00" from="e7" to="e9"/>
    <trip id="veh487" depart="2464.00" from="e1" to="e5"/>
    <trip id="veh488" depart="2466.00" from="e4" to="e3"/>
    <trip id="veh489" depart="2467.00" from="e4" to="e11"/>
    <trip id="veh490" depart="2474.00" from="e7" to="e3"/>
    <trip id="veh491" depart="2479.00" from="e11" to="e3"/>
    <trip id="veh492" depart="2481.00" from="e9" to="e6"/>
    <trip id="veh493" depart="2481.00" from="e3" to="e9"/>
    <trip id="veh494" depart="2486.00" from="e8" to="e8"/>
    <trip id="veh495" depart="2488.00" from="e1" to="e12"/>
    <trip id="veh496" depart="2494.00" from="e7" to="e4"/>
    <trip id="veh497" depart="2500.00" from="e2" to="e8"/>
    <trip id="veh498" depart="2506.00" from="e7" to="e4"/>
    <trip id="veh499" depart="2510.00" from="e4" to="e8"/>
    <trip id="veh500" depart="2510.00" from="e4" to="e2"/>