<?xml version="1.0" encoding="UTF-8"?>

<!-- generated on 2025-04-22 16:39:03.463962 by randomTrips.py UNKNOWN
<configuration>
    <net-file value="vuna.net.xml"/>
    <output-trip-file value="vuna.rou.xml"/>
    <route-file value="vuna.trips.xml"/>
    <prefix value="veh"/>
    <trip-attributes value="departLane=&quot;best&quot; departSpeed=&quot;max&quot; departPos=&quot;random&quot;"/>
    <validate value="True"/>
</configuration>
-->

<!-- generated on 2025-04-22 16:39:03 by Eclipse SUMO duarouter Version 1.22.0
<duarouterConfiguration xmlns:xsi="http://www.w3.org/2001/XMLSchema-instance" xsi:noNamespaceSchemaLocation="http://sumo.dlr.de/xsd/duarouterConfiguration.xsd">

    <input>
        <net-file value="vuna.net.xml"/>
        <route-files value="vuna.rou.xml"/>
    </input>

    <output>
        <output-file value="vuna.trips.xml"/>
        <alternatives-output value="NUL"/>
    </output>

    <time>
        <begin value="0"/>
        <end value="3600.0"/>
    </time>

    <report>
        <no-warnings value="true"/>
        <ignore-errors value="true"/>
        <no-step-log value="true"/>
    </report>

</duarouterConfiguration>
-->

<routes xmlns:xsi="http://www.w3.org/2001/XMLSchema-instance" xsi:noNamespaceSchemaLocation="http://sumo.dlr.de/xsd/routes_file.xsd">
    <vehicle id="veh1" depart="1.00" departLane="best" departPos="random" departSpeed="max">
        <route edges="e11 e12"/>
    </vehicle>
    <vehicle id="veh2" depart="2.00" departLane="best" departPos="random" departSpeed="max">
        <route edges="e7 e8 e5"/>
    </vehicle>
    <vehicle id="veh4" depart="4.00" departLane="best" departPos="random" departSpeed="max">
        <route edges="e3 e10"/>
    </vehicle>
    <vehicle id="veh6" depart="6.00" departLane="best" departPos="random" departSpeed="max">
        <route edges="e1 e2 e11"/>
    </vehicle>
    <vehicle id="veh10" depart="10.00" departLane="best" departPos="random" departSpeed="max">
        <route edges="e8 e5"/>
    </vehicle>
    <vehicle id="veh11" depart="11.00" departLane="best" departPos="random" departSpeed="max">
        <route edges="e2 e11"/>
    </vehicle>
    <vehicle id="veh13" depart="13.00" departLane="best" departPos="random" departSpeed="max">
        <route edges="e1 e9 e10"/>
    </vehicle>
    <vehicle id="veh14" depart="14.00" departLane="best" departPos="random" departSpeed="max">
        <route edges="e8 e5"/>
    </vehicle>
    <vehicle id="veh15" depart="15.00" departLane="best" departPos="random" departSpeed="max">
        <route edges="e8 e5 e6"/>
    </vehicle>
    <vehicle id="veh18" depart="18.00" departLane="best" departPos="random" departSpeed="max">
        <route edges="e8 e5"/>
    </vehicle>
    <vehicle id="veh20" depart="20.00" departLane="best" departPos="random" departSpeed="max">
        <route edges="e7 e3 e10"/>
    </vehicle>
    <vehicle id="veh21" depart="21.00" departLane="best" departPos="random" departSpeed="max">
        <route edges="e11 e12"/>
    </vehicle>
    <vehicle id="veh22" depart="22.00" departLane="best" departPos="random" departSpeed="max">
        <route edges="e1 e9 e4 e12"/>
    </vehicle>
    <vehicle id="veh25" depart="25.00" departLane="best" departPos="random" departSpeed="max">
        <route edges="e2 e11 e12"/>
    </vehicle>
    <vehicle id="veh27" depart="27.00" departLane="best" departPos="random" departSpeed="max">
        <route edges="e5"/>
    </vehicle>
    <vehicle id="veh28" depart="28.00" departLane="best" departPos="random" departSpeed="max">
        <route edges="e10 e6"/>
    </vehicle>
    <vehicle id="veh32" depart="32.00" departLane="best" departPos="random" departSpeed="max">
        <route edges="e8 e5 e6"/>
    </vehicle>
    <vehicle id="veh34" depart="34.00" departLane="best" departPos="random" departSpeed="max">
        <route edges="e2 e11 e12"/>
    </vehicle>
    <vehicle id="veh39" depart="39.00" departLane="best" departPos="random" departSpeed="max">
        <route edges="e11 e12"/>
    </vehicle>
    <vehicle id="veh40" depart="40.00" departLane="best" departPos="random" departSpeed="max">
        <route edges="e4 e12"/>
    </vehicle>
    <vehicle id="veh42" depart="42.00" departLane="best" departPos="random" departSpeed="max">
        <route edges="e2 e11 e12"/>
    </vehicle>
    <vehicle id="veh43" depart="43.00" departLane="best" departPos="random" departSpeed="max">
        <route edges="e9 e4"/>
    </vehicle>
    <vehicle id="veh44" depart="44.00" departLane="best" departPos="random" departSpeed="max">
        <route edges="e1 e9 e10"/>
    </vehicle>
    <vehicle id="veh46" depart="46.00" departLane="best" departPos="random" departSpeed="max">
        <route edges="e7 e3"/>
    </vehicle>
    <vehicle id="veh47" depart="47.00" departLane="best" departPos="random" departSpeed="max">
        <route edges="e1 e2"/>
    </vehicle>
    <vehicle id="veh48" depart="48.00" departLane="best" departPos="random" departSpeed="max">
        <route edges="e9 e4"/>
    </vehicle>
    <vehicle id="veh50" depart="50.00" departLane="best" departPos="random" departSpeed="max">
        <route edges="e1 e9 e10 e6"/>
    </vehicle>
    <vehicle id="veh60" depart="60.00" departLane="best" departPos="random" departSpeed="max">
        <route edges="e7 e3 e4"/>
    </vehicle>
    <vehicle id="veh61" depart="61.00" departLane="best" departPos="random" departSpeed="max">
        <route edges="e7 e3 e4"/>
    </vehicle>
    <vehicle id="veh62" depart="62.00" departLane="best" departPos="random" departSpeed="max">
        <route edges="e1 e2"/>
    </vehicle>
    <vehicle id="veh63" depart="63.00" departLane="best" departPos="random" departSpeed="max">
        <route edges="e1 e9"/>
    </vehicle>
    <vehicle id="veh64" depart="64.00" departLane="best" departPos="random" departSpeed="max">
        <route edges="e8"/>
    </vehicle>
    <vehicle id="veh68" depart="68.00" departLane="best" departPos="random" departSpeed="max">
        <route edges="e1 e9 e10 e6"/>
    </vehicle>
    <vehicle id="veh70" depart="70.00" departLane="best" departPos="random" departSpeed="max">
        <route edges="e3 e4"/>
    </vehicle>
    <vehicle id="veh72" depart="72.00" departLane="best" departPos="random" departSpeed="max">
        <route edges="e3 e4 e12"/>
    </vehicle>
    <vehicle id="veh76" depart="76.00" departLane="best" departPos="random" departSpeed="max">
        <route edges="e3 e4"/>
    </vehicle>
    <vehicle id="veh79" depart="79.00" departLane="best" departPos="random" departSpeed="max">
        <route edges="e11 e12"/>
    </vehicle>
    <vehicle id="veh84" depart="84.00" departLane="best" departPos="random" departSpeed="max">
        <route edges="e11"/>
    </vehicle>
    <vehicle id="veh85" depart="85.00" departLane="best" departPos="random" departSpeed="max">
        <route edges="e9 e4"/>
    </vehicle>
    <vehicle id="veh86" depart="86.00" departLane="best" departPos="random" departSpeed="max">
        <route edges="e3 e10 e6"/>
    </vehicle>
    <vehicle id="veh89" depart="89.00" departLane="best" departPos="random" departSpeed="max">
        <route edges="e3"/>
    </vehicle>
    <vehicle id="veh90" depart="90.00" departLane="best" departPos="random" departSpeed="max">
        <route edges="e7 e8 e5"/>
    </vehicle>
    <vehicle id="veh91" depart="91.00" departLane="best" departPos="random" departSpeed="max">
        <route edges="e9 e10"/>
    </vehicle>
    <vehicle id="veh95" depart="95.00" departLane="best" departPos="random" departSpeed="max">
        <route edges="e3 e4 e12"/>
    </vehicle>
    <vehicle id="veh100" depart="100.00" departLane="best" departPos="random" departSpeed="max">
        <route edges="e9"/>
    </vehicle>
    <vehicle id="veh102" depart="102.00" departLane="best" departPos="random" departSpeed="max">
        <route edges="e3 e4 e12"/>
    </vehicle>
    <vehicle id="veh103" depart="103.00" departLane="best" departPos="random" departSpeed="max">
        <route edges="e3 e10"/>
    </vehicle>
    <vehicle id="veh106" depart="106.00" departLane="best" departPos="random" departSpeed="max">
        <route edges="e3"/>
    </vehicle>
    <vehicle id="veh107" depart="107.00" departLane="best" departPos="random" departSpeed="max">
        <route edges="e9"/>
    </vehicle>
    <vehicle id="veh110" depart="110.00" departLane="best" departPos="random" departSpeed="max">
        <route edges="e9 e4"/>
    </vehicle>
    <vehicle id="veh112" depart="112.00" departLane="best" departPos="random" departSpeed="max">
        <route edges="e1 e9 e4"/>
    </vehicle>
    <vehicle id="veh115" depart="115.00" departLane="best" departPos="random" departSpeed="max">
        <route edges="e1 e2 e11"/>
    </vehicle>
    <vehicle id="veh117" depart="117.00" departLane="best" departPos="random" departSpeed="max">
        <route edges="e11"/>
    </vehicle>
    <vehicle id="veh120" depart="120.00" departLane="best" departPos="random" departSpeed="max">
        <route edges="e3 e4"/>
    </vehicle>
    <vehicle id="veh127" depart="127.00" departLane="best" departPos="random" departSpeed="max">
        <route edges="e9"/>
    </vehicle>
    <vehicle id="veh128" depart="128.00" departLane="best" departPos="random" departSpeed="max">
        <route edges="e1 e9 e4 e12"/>
    </vehicle>
    <vehicle id="veh130" depart="130.00" departLane="best" departPos="random" departSpeed="max">
        <route edges="e8"/>
    </vehicle>
    <vehicle id="veh131" depart="131.00" departLane="best" departPos="random" departSpeed="max">
        <route edges="e2 e11"/>
    </vehicle>
    <vehicle id="veh132" depart="132.00" departLane="best" departPos="random" departSpeed="max">
        <route edges="e8 e5 e6"/>
    </vehicle>
    <vehicle id="veh140" depart="140.00" departLane="best" departPos="random" departSpeed="max">
        <route edges="e7 e3 e4 e12"/>
    </vehicle>
    <vehicle id="veh144" depart="144.00" departLane="best" departPos="random" departSpeed="max">
        <route edges="e3 e4 e12"/>
    </vehicle>
    <vehicle id="veh145" depart="145.00" departLane="best" departPos="random" departSpeed="max">
        <route edges="e1 e9 e10 e6"/>
    </vehicle>
    <vehicle id="veh147" depart="147.00" departLane="best" departPos="random" departSpeed="max">
        <route edges="e7 e3 e4"/>
    </vehicle>
    <vehicle id="veh148" depart="148.00" departLane="best" departPos="random" departSpeed="max">
        <route edges="e3 e10"/>
    </vehicle>
    <vehicle id="veh150" depart="150.00" departLane="best" departPos="random" departSpeed="max">
        <route edges="e9 e4"/>
    </vehicle>
    <vehicle id="veh154" depart="154.00" departLane="best" departPos="random" departSpeed="max">
        <route edges="e7 e8"/>
    </vehicle>
    <vehicle id="veh156" depart="156.00" departLane="best" departPos="random" departSpeed="max">
        <route edges="e11"/>
    </vehicle>
    <vehicle id="veh157" depart="157.00" departLane="best" departPos="random" departSpeed="max">
        <route edges="e7 e8"/>
    </vehicle>
    <vehicle id="veh161" depart="161.00" departLane="best" departPos="random" departSpeed="max">
        <route edges="e8"/>
    </vehicle>
    <vehicle id="veh162" depart="162.00" departLane="best" departPos="random" departSpeed="max">
        <route edges="e1 e9 e10 e6"/>
    </vehicle>
    <vehicle id="veh164" depart="164.00" departLane="best" departPos="random" departSpeed="max">
        <route edges="e8"/>
    </vehicle>
    <vehicle id="veh167" depart="167.00" departLane="best" departPos="random" departSpeed="max">
        <route edges="e8"/>
    </vehicle>
    <vehicle id="veh170" depart="170.00" departLane="best" departPos="random" departSpeed="max">
        <route edges="e7 e3 e4 e12"/>
    </vehicle>
    <vehicle id="veh171" depart="171.00" departLane="best" departPos="random" departSpeed="max">
        <route edges="e1 e2 e11"/>
    </vehicle>
    <vehicle id="veh173" depart="173.00" departLane="best" departPos="random" departSpeed="max">
        <route edges="e9 e4 e12"/>
    </vehicle>
    <vehicle id="veh175" depart="175.00" departLane="best" departPos="random" departSpeed="max">
        <route edges="e9 e4"/>
    </vehicle>
    <vehicle id="veh178" depart="178.00" departLane="best" departPos="random" departSpeed="max">
        <route edges="e9 e4 e12"/>
    </vehicle>
    <vehicle id="veh184" depart="184.00" departLane="best" departPos="random" departSpeed="max">
        <route edges="e1 e9"/>
    </vehicle>
    <vehicle id="veh186" depart="186.00" departLane="best" departPos="random" departSpeed="max">
        <route edges="e7 e8 e5"/>
    </vehicle>
    <vehicle id="veh192" depart="192.00" departLane="best" departPos="random" departSpeed="max">
        <route edges="e3 e4 e12"/>
    </vehicle>
    <vehicle id="veh197" depart="197.00" departLane="best" departPos="random" departSpeed="max">
        <route edges="e1 e9 e4 e12"/>
    </vehicle>
    <vehicle id="veh198" depart="198.00" departLane="best" departPos="random" departSpeed="max">
        <route edges="e3 e4"/>
    </vehicle>
    <vehicle id="veh200" depart="200.00" departLane="best" departPos="random" departSpeed="max">
        <route edges="e3 e4 e12"/>
    </vehicle>
    <vehicle id="veh203" depart="203.00" departLane="best" departPos="random" departSpeed="max">
        <route edges="e1 e9 e4"/>
    </vehicle>
    <vehicle id="veh205" depart="205.00" departLane="best" departPos="random" departSpeed="max">
        <route edges="e8 e5 e6"/>
    </vehicle>
    <vehicle id="veh207" depart="207.00" departLane="best" departPos="random" departSpeed="max">
        <route edges="e10"/>
    </vehicle>
    <vehicle id="veh212" depart="212.00" departLane="best" departPos="random" departSpeed="max">
        <route edges="e3 e4 e12"/>
    </vehicle>
    <vehicle id="veh214" depart="214.00" departLane="best" departPos="random" departSpeed="max">
        <route edges="e7 e3 e10 e6"/>
    </vehicle>
    <vehicle id="veh222" depart="222.00" departLane="best" departPos="random" departSpeed="max">
        <route edges="e8 e5"/>
    </vehicle>
    <vehicle id="veh223" depart="223.00" departLane="best" departPos="random" departSpeed="max">
        <route edges="e7 e3 e4"/>
    </vehicle>
    <vehicle id="veh225" depart="225.00" departLane="best" departPos="random" departSpeed="max">
        <route edges="e8 e5 e6"/>
    </vehicle>
    <vehicle id="veh226" depart="226.00" departLane="best" departPos="random" departSpeed="max">
        <route edges="e3 e4 e12"/>
    </vehicle>
    <vehicle id="veh228" depart="228.00" departLane="best" departPos="random" departSpeed="max">
        <route edges="e7 e3 e4"/>
    </vehicle>
    <vehicle id="veh230" depart="230.00" departLane="best" departPos="random" departSpeed="max">
        <route edges="e1 e9 e4 e12"/>
    </vehicle>
    <vehicle id="veh234" depart="234.00" departLane="best" departPos="random" departSpeed="max">
        <route edges="e7 e3 e10"/>
    </vehicle>
    <vehicle id="veh235" depart="235.00" departLane="best" departPos="random" departSpeed="max">
        <route edges="e3 e4"/>
    </vehicle>
    <vehicle id="veh236" depart="236.00" departLane="best" departPos="random" departSpeed="max">
        <route edges="e3 e4 e12"/>
    </vehicle>
    <vehicle id="veh239" depart="239.00" departLane="best" departPos="random" departSpeed="max">
        <route edges="e8 e5 e6"/>
    </vehicle>
    <vehicle id="veh243" depart="243.00" departLane="best" departPos="random" departSpeed="max">
        <route edges="e3 e10 e6"/>
    </vehicle>
    <vehicle id="veh245" depart="245.00" departLane="best" departPos="random" departSpeed="max">
        <route edges="e11 e12"/>
    </vehicle>
    <vehicle id="veh246" depart="246.00" departLane="best" departPos="random" departSpeed="max">
        <route edges="e3 e10"/>
    </vehicle>
    <vehicle id="veh254" depart="254.00" departLane="best" departPos="random" departSpeed="max">
        <route edges="e1 e2"/>
    </vehicle>
    <vehicle id="veh257" depart="257.00" departLane="best" departPos="random" departSpeed="max">
        <route edges="e7 e8"/>
    </vehicle>
    <vehicle id="veh259" depart="259.00" departLane="best" departPos="random" departSpeed="max">
        <route edges="e1 e9 e4"/>
    </vehicle>
    <vehicle id="veh261" depart="261.00" departLane="best" departPos="random" departSpeed="max">
        <route edges="e5 e6"/>
    </vehicle>
    <vehicle id="veh262" depart="262.00" departLane="best" departPos="random" departSpeed="max">
        <route edges="e5 e6"/>
    </vehicle>
    <vehicle id="veh264" depart="264.00" departLane="best" departPos="random" departSpeed="max">
        <route edges="e1 e2 e11"/>
    </vehicle>
    <vehicle id="veh266" depart="266.00" departLane="best" departPos="random" departSpeed="max">
        <route edges="e4 e12"/>
    </vehicle>
    <vehicle id="veh267" depart="267.00" departLane="best" departPos="random" departSpeed="max">
        <route edges="e5 e6"/>
    </vehicle>
    <vehicle id="veh271" depart="271.00" departLane="best" departPos="random" departSpeed="max">
        <route edges="e10"/>
    </vehicle>
    <vehicle id="veh274" depart="274.00" departLane="best" departPos="random" departSpeed="max">
        <route edges="e7 e3 e10"/>
    </vehicle>
    <vehicle id="veh275" depart="275.00" departLane="best" departPos="random" departSpeed="max">
        <route edges="e5"/>
    </vehicle>
    <vehicle id="veh276" depart="276.00" departLane="best" departPos="random" departSpeed="max">
        <route edges="e10 e6"/>
    </vehicle>
    <vehicle id="veh277" depart="277.00" departLane="best" departPos="random" departSpeed="max">
        <route edges="e8 e5"/>
    </vehicle>
    <vehicle id="veh282" depart="282.00" departLane="best" departPos="random" departSpeed="max">
        <route edges="e8"/>
    </vehicle>
    <vehicle id="veh285" depart="285.00" departLane="best" departPos="random" departSpeed="max">
        <route edges="e7 e3"/>
    </vehicle>
    <vehicle id="veh289" depart="289.00" departLane="best" departPos="random" departSpeed="max">
        <route edges="e3 e10 e6"/>
    </vehicle>
    <vehicle id="veh298" depart="298.00" departLane="best" departPos="random" departSpeed="max">
        <route edges="e7 e3 e4 e12"/>
    </vehicle>
    <vehicle id="veh299" depart="299.00" departLane="best" departPos="random" departSpeed="max">
        <route edges="e1 e9"/>
    </vehicle>
    <vehicle id="veh300" depart="300.00" departLane="best" departPos="random" departSpeed="max">
        <route edges="e1 e9 e10 e6"/>
    </vehicle>
    <vehicle id="veh301" depart="301.00" departLane="best" departPos="random" departSpeed="max">
        <route edges="e3 e10 e6"/>
    </vehicle>
    <vehicle id="veh302" depart="302.00" departLane="best" departPos="random" departSpeed="max">
        <route edges="e5"/>
    </vehicle>
    <vehicle id="veh303" depart="303.00" departLane="best" departPos="random" departSpeed="max">
        <route edges="e3 e10 e6"/>
    </vehicle>
    <vehicle id="veh304" depart="304.00" departLane="best" departPos="random" departSpeed="max">
        <route edges="e1 e9 e4 e12"/>
    </vehicle>
    <vehicle id="veh309" depart="309.00" departLane="best" departPos="random" departSpeed="max">
        <route edges="e7 e3 e4 e12"/>
    </vehicle>
    <vehicle id="veh310" depart="310.00" departLane="best" departPos="random" departSpeed="max">
        <route edges="e11"/>
    </vehicle>
    <vehicle id="veh314" depart="314.00" departLane="best" departPos="random" departSpeed="max">
        <route edges="e3 e10 e6"/>
    </vehicle>
    <vehicle id="veh315" depart="315.00" departLane="best" departPos="random" departSpeed="max">
        <route edges="e9 e4"/>
    </vehicle>
    <vehicle id="veh316" depart="316.00" departLane="best" departPos="random" departSpeed="max">
        <route edges="e11"/>
    </vehicle>
    <vehicle id="veh318" depart="318.00" departLane="best" departPos="random" departSpeed="max">
        <route edges="e10"/>
    </vehicle>
    <vehicle id="veh319" depart="319.00" departLane="best" departPos="random" departSpeed="max">
        <route edges="e4 e12"/>
    </vehicle>
    <vehicle id="veh320" depart="320.00" departLane="best" departPos="random" departSpeed="max">
        <route edges="e9 e4"/>
    </vehicle>
    <vehicle id="veh324" depart="324.00" departLane="best" departPos="random" departSpeed="max">
        <route edges="e3"/>
    </vehicle>
    <vehicle id="veh325" depart="325.00" departLane="best" departPos="random" departSpeed="max">
        <route edges="e10"/>
    </vehicle>
    <vehicle id="veh329" depart="329.00" departLane="best" departPos="random" departSpeed="max">
        <route edges="e1 e2 e11"/>
    </vehicle>
    <vehicle id="veh332" depart="332.00" departLane="best" departPos="random" departSpeed="max">
        <route edges="e7 e8 e5"/>
    </vehicle>
    <vehicle id="veh333" depart="333.00" departLane="best" departPos="random" departSpeed="max">
        <route edges="e7 e3 e4 e12"/>
    </vehicle>
    <vehicle id="veh337" depart="337.00" departLane="best" departPos="random" departSpeed="max">
        <route edges="e5"/>
    </vehicle>
    <vehicle id="veh339" depart="339.00" departLane="best" departPos="random" departSpeed="max">
        <route edges="e11 e12"/>
    </vehicle>
    <vehicle id="veh341" depart="341.00" departLane="best" departPos="random" departSpeed="max">
        <route edges="e10"/>
    </vehicle>
    <vehicle id="veh343" depart="343.00" departLane="best" departPos="random" departSpeed="max">
        <route edges="e4 e12"/>
    </vehicle>
    <vehicle id="veh345" depart="345.00" departLane="best" departPos="random" departSpeed="max">
        <route edges="e7 e3"/>
    </vehicle>
    <vehicle id="veh347" depart="347.00" departLane="best" departPos="random" departSpeed="max">
        <route edges="e7 e8 e5"/>
    </vehicle>
    <vehicle id="veh349" depart="349.00" departLane="best" departPos="random" departSpeed="max">
        <route edges="e3 e4"/>
    </vehicle>
    <vehicle id="veh353" depart="353.00" departLane="best" departPos="random" departSpeed="max">
        <route edges="e7 e3 e4"/>
    </vehicle>
    <vehicle id="veh354" depart="354.00" departLane="best" departPos="random" departSpeed="max">
        <route edges="e11"/>
    </vehicle>
    <vehicle id="veh355" depart="355.00" departLane="best" departPos="random" departSpeed="max">
        <route edges="e5"/>
    </vehicle>
    <vehicle id="veh356" depart="356.00" departLane="best" departPos="random" departSpeed="max">
        <route edges="e9 e4"/>
    </vehicle>
    <vehicle id="veh357" depart="357.00" departLane="best" departPos="random" departSpeed="max">
        <route edges="e3 e10"/>
    </vehicle>
    <vehicle id="veh359" depart="359.00" departLane="best" departPos="random" departSpeed="max">
        <route edges="e2 e11 e12"/>
    </vehicle>
    <vehicle id="veh360" depart="360.00" departLane="best" departPos="random" departSpeed="max">
        <route edges="e1 e9"/>
    </vehicle>
    <vehicle id="veh362" depart="362.00" departLane="best" departPos="random" departSpeed="max">
        <route edges="e9"/>
    </vehicle>
    <vehicle id="veh364" depart="364.00" departLane="best" departPos="random" departSpeed="max">
        <route edges="e1 e9 e10 e6"/>
    </vehicle>
    <vehicle id="veh368" depart="368.00" departLane="best" departPos="random" departSpeed="max">
        <route edges="e3 e10"/>
    </vehicle>
    <vehicle id="veh369" depart="369.00" departLane="best" departPos="random" departSpeed="max">
        <route edges="e2"/>
    </vehicle>
    <vehicle id="veh376" depart="376.00" departLane="best" departPos="random" departSpeed="max">
        <route edges="e3 e4"/>
    </vehicle>
    <vehicle id="veh380" depart="380.00" departLane="best" departPos="random" departSpeed="max">
        <route edges="e7 e8 e5"/>
    </vehicle>
    <vehicle id="veh381" depart="381.00" departLane="best" departPos="random" departSpeed="max">
        <route edges="e7 e3 e4 e12"/>
    </vehicle>
    <vehicle id="veh388" depart="388.00" departLane="best" departPos="random" departSpeed="max">
        <route edges="e9"/>
    </vehicle>
    <vehicle id="veh391" depart="391.00" departLane="best" departPos="random" departSpeed="max">
        <route edges="e7 e3 e4"/>
    </vehicle>
    <vehicle id="veh393" depart="393.00" departLane="best" departPos="random" departSpeed="max">
        <route edges="e9 e4 e12"/>
    </vehicle>
    <vehicle id="veh395" depart="395.00" departLane="best" departPos="random" departSpeed="max">
        <route edges="e9 e4"/>
    </vehicle>
    <vehicle id="veh396" depart="396.00" departLane="best" departPos="random" departSpeed="max">
        <route edges="e8"/>
    </vehicle>
    <vehicle id="veh400" depart="400.00" departLane="best" departPos="random" departSpeed="max">
        <route edges="e11 e12"/>
    </vehicle>
    <vehicle id="veh404" depart="404.00" departLane="best" departPos="random" departSpeed="max">
        <route edges="e4"/>
    </vehicle>
    <vehicle id="veh407" depart="407.00" departLane="best" departPos="random" departSpeed="max">
        <route edges="e4 e12"/>
    </vehicle>
    <vehicle id="veh408" depart="408.00" departLane="best" departPos="random" departSpeed="max">
        <route edges="e7 e3 e10"/>
    </vehicle>
    <vehicle id="veh409" depart="409.00" departLane="best" departPos="random" departSpeed="max">
        <route edges="e7 e3 e10 e6"/>
    </vehicle>
    <vehicle id="veh413" depart="413.00" departLane="best" departPos="random" departSpeed="max">
        <route edges="e1 e9 e4"/>
    </vehicle>
    <vehicle id="veh417" depart="417.00" departLane="best" departPos="random" departSpeed="max">
        <route edges="e7 e3"/>
    </vehicle>
    <vehicle id="veh422" depart="422.00" departLane="best" departPos="random" departSpeed="max">
        <route edges="e8"/>
    </vehicle>
    <vehicle id="veh423" depart="423.00" departLane="best" departPos="random" departSpeed="max">
        <route edges="e2"/>
    </vehicle>
    <vehicle id="veh424" depart="424.00" departLane="best" departPos="random" departSpeed="max">
        <route edges="e7 e3 e10 e6"/>
    </vehicle>
    <vehicle id="veh427" depart="427.00" departLane="best" departPos="random" departSpeed="max">
        <route edges="e9"/>
    </vehicle>
    <vehicle id="veh428" depart="428.00" departLane="best" departPos="random" departSpeed="max">
        <route edges="e7 e3"/>
    </vehicle>
    <vehicle id="veh432" depart="432.00" departLane="best" departPos="random" departSpeed="max">
        <route edges="e1 e9 e10 e6"/>
    </vehicle>
    <vehicle id="veh436" depart="436.00" departLane="best" departPos="random" departSpeed="max">
        <route edges="e10"/>
    </vehicle>
    <vehicle id="veh437" depart="437.00" departLane="best" departPos="random" departSpeed="max">
        <route edges="e8 e5"/>
    </vehicle>
    <vehicle id="veh440" depart="440.00" departLane="best" departPos="random" departSpeed="max">
        <route edges="e11 e12"/>
    </vehicle>
    <vehicle id="veh448" depart="448.00" departLane="best" departPos="random" departSpeed="max">
        <route edges="e3 e4 e12"/>
    </vehicle>
    <vehicle id="veh449" depart="449.00" departLane="best" departPos="random" departSpeed="max">
        <route edges="e4"/>
    </vehicle>
    <vehicle id="veh450" depart="450.00" departLane="best" departPos="random" departSpeed="max">
        <route edges="e9 e4 e12"/>
    </vehicle>
    <vehicle id="veh453" depart="453.00" departLane="best" departPos="random" departSpeed="max">
        <route edges="e5 e6"/>
    </vehicle>
    <vehicle id="veh458" depart="458.00" departLane="best" departPos="random" departSpeed="max">
        <route edges="e5"/>
    </vehicle>
    <vehicle id="veh459" depart="459.00" departLane="best" departPos="random" departSpeed="max">
        <route edges="e5 e6"/>
    </vehicle>
    <vehicle id="veh463" depart="463.00" departLane="best" departPos="random" departSpeed="max">
        <route edges="e3 e4"/>
    </vehicle>
    <vehicle id="veh464" depart="464.00" departLane="best" departPos="random" departSpeed="max">
        <route edges="e7 e3 e10"/>
    </vehicle>
    <vehicle id="veh471" depart="471.00" departLane="best" departPos="random" departSpeed="max">
        <route edges="e8 e5 e6"/>
    </vehicle>
    <vehicle id="veh472" depart="472.00" departLane="best" departPos="random" departSpeed="max">
        <route edges="e2 e11"/>
    </vehicle>
    <vehicle id="veh478" depart="478.00" departLane="best" departPos="random" departSpeed="max">
        <route edges="e1 e9 e4"/>
    </vehicle>
    <vehicle id="veh492" depart="492.00" departLane="best" departPos="random" departSpeed="max">
        <route edges="e5 e6"/>
    </vehicle>
    <vehicle id="veh495" depart="495.00" departLane="best" departPos="random" departSpeed="max">
        <route edges="e3 e10"/>
    </vehicle>
    <vehicle id="veh496" depart="496.00" departLane="best" departPos="random" departSpeed="max">
        <route edges="e3"/>
    </vehicle>
    <vehicle id="veh497" depart="497.00" departLane="best" departPos="random" departSpeed="max">
        <route edges="e9 e10"/>
    </vehicle>
    <vehicle id="veh502" depart="502.00" departLane="best" departPos="random" departSpeed="max">
        <route edges="e2"/>
    </vehicle>
    <vehicle id="veh505" depart="505.00" departLane="best" departPos="random" departSpeed="max">
        <route edges="e5"/>
    </vehicle>
    <vehicle id="veh507" depart="507.00" departLane="best" departPos="random" departSpeed="max">
        <route edges="e7 e3 e4 e12"/>
    </vehicle>
    <vehicle id="veh509" depart="509.00" departLane="best" departPos="random" departSpeed="max">
        <route edges="e1 e9 e10 e6"/>
    </vehicle>
    <vehicle id="veh510" depart="510.00" departLane="best" departPos="random" departSpeed="max">
        <route edges="e11 e12"/>
    </vehicle>