<edges>
    <!-- Main horizontal roads (West-East) -->
    <edge id="e1" from="n1" to="n2" type="urban_road_2x2"/>
    <edge id="e2" from="n2" to="n3" type="urban_road_2x2"/>
    <edge id="e3" from="n4" to="n5" type="urban_road_2x2"/>
    <edge id="e4" from="n5" to="n6" type="urban_road_2x2"/>
    
    <!-- Main horizontal roads (East-West) -->
    <edge id="e5" from="n2" to="n1" type="urban_road_2x2"/>
    <edge id="e6" from="n3" to="n2" type="urban_road_2x2"/>
    <edge id="e7" from="n5" to="n4" type="urban_road_2x2"/>
    <edge id="e8" from="n6" to="n5" type="urban_road_2x2"/>
    
    <!-- Main vertical roads (North-South) -->
    <edge id="e9" from="n1" to="n4" type="urban_road_2x2"/>
    <edge id="e10" from="n2" to="n5" type="urban_road_2x2"/>
    <edge id="e11" from="n3" to="n6" type="urban_road_2x2"/>
    
    <!-- Main vertical roads (South-North) -->
    <edge id="e12" from="n4" to="n1" type="urban_road_2x2"/>
    <edge id="e13" from="n5" to="n2" type="urban_road_2x2"/>
    <edge id="e14" from="n6" to="n3" type="urban_road_2x2"/>
    
    <!-- Secondary diagonal road (Southwest-Northeast) -->
    <edge id="e15" from="n4" to="n7" type="urban_road_2x2"/>
    <edge id="e16" from="n7" to="n2" type="urban_road_2x2"/>
    <edge id="e17" from="n5" to="n8" type="urban_road_2x2"/>
    <edge id="e18" from="n8" to="n3" type="urban_road_2x2"/>
    
    <!-- Secondary diagonal road (Northeast-Southwest) -->
    <edge id="e19" from="n2" to="n7" type="urban_road_2x2"/>
    <edge id="e20" from="n7" to="n4" type="urban_road_2x2"/>
    <edge id="e21" from="n3" to="n8" type="urban_road_2x2"/>
    <edge id="e22" from="n8" to="n5" type="urban_road_2x2"/>
    
    <!-- Additional road to n9 (East extension) -->
    <edge id="e23" from="n6" to="n9" type="urban_road_2x2"/>
    <edge id="e24" from="n9" to="n6" type="urban_road_2x2"/>
    <edge id="e25" from="n7" to="n8" type="bike"/>
    <edge id="e26" from="n8" to="n6" type="bike"/>
    <edge id="e27" from="n5" to="n7" type="pedestrian"/>
</edges>