<additional>
    <!-- Traffic light program for n1 (0,0 intersection) -->
    <tlLogic id="n1" type="static" programID="0" offset="0">
        <phase duration="31" state="GGgrrrGGgrrr"/>
        <phase duration="4"  state="yyyrrryyyrrrr"/>
        <phase duration="31" state="rrrGGgrrrGGg"/>
        <phase duration="4"  state="rrryyyrrryyy"/>
    </tlLogic>
    
    <!-- Traffic light program for n2 (200,0 intersection) -->
    <tlLogic id="n2" type="static" programID="0" offset="0">
        <phase duration="31" state="GGgrrrGGgrrr"/>
        <phase duration="4"  state="yyyrrryyyrrrr"/>
        <phase duration="31" state="rrrGGgrrrGGg"/>
        <phase duration="4"  state="rrryyyrrryyy"/>
    </tlLogic>
    
    <!-- Add similar traffic light programs for n3, n4, n5, n6 -->
</additional>