<configuration>
    <input>
        <node-files value="cbd_nodes.nod.xml"/>
        <edge-files value="cbd_edges.edg.xml"/>
        <type-files value="cbd_types.type.xml"/>
    </input>
    <output>
        <output-file value="cbd.net.xml"/>
    </output>
</configuration>
