<edges>
    <edge id="e1" from="n1" to="n2" type="car"/>
    <edge id="e2" from="n2" to="n3" type="car"/>
    <edge id="e3" from="n1" to="n5" type="car"/>
    <edge id="e4" from="n5" to="n4" type="car"/>
    <edge id="e5" from="n4" to="n6" type="car"/>
    <edge id="e6" from="n6" to="n3" type="car"/>
    <edge id="e7" from="n2" to="n7" type="bike"/>
    <edge id="e8" from="n7" to="n8" type="bike"/>
    <edge id="e9" from="n8" to="n6" type="bike"/>
    <edge id="e10" from="n5" to="n7" type="pedestrian"/>
</edges>
